                                   MODFLOW 6
                U.S. GEOLOGICAL SURVEY MODULAR HYDROLOGIC MODEL
                          GROUNDWATER FLOW MODEL (GWF)
                            VERSION 6.4.2 06/28/2023

   MODFLOW 6 compiled Jul 05 2023 20:29:14 with Intel(R) Fortran Intel(R) 64
   Compiler Classic for applications running on Intel(R) 64, Version 2021.7.0
                             Build 20220726_000000

This software has been approved for release by the U.S. Geological 
Survey (USGS). Although the software has been subjected to rigorous 
review, the USGS reserves the right to update the software as needed 
pursuant to further analysis and review. No warranty, expressed or 
implied, is made by the USGS or the U.S. Government as to the 
functionality of the software and related material nor shall the 
fact of release constitute any such warranty. Furthermore, the 
software is released on condition that neither the USGS nor the U.S. 
Government shall be held liable for any damages resulting from its 
authorized or unauthorized use. Also refer to the USGS Water 
Resources Software User Rights Notice for complete use, copyright, 
and distribution information.


As a work of the United States Government, this USGS product is 
in the public domain within the United States. You can copy, 
modify, distribute, and perform the work, even for commercial 
purposes, all without asking permission. Additionally, USGS 
waives copyright and related rights in the work worldwide 
through CC0 1.0 Universal Public Domain Dedication 
(https://creativecommons.org/publicdomain/zero/1.0/).

The following GNU Lesser General Public License (LGPL) libraries
are used in this USGS product:

    SPARSKIT version 2.0
      ilut, luson, and qsplit 
      (https://www-users.cse.umn.edu/~saad/software/SPARSKIT/)

    RCM - Reverse Cuthill McKee Ordering
      (https://people.math.sc.edu/Burkardt/f_src/rcm/rcm.html)

    BLAS - Basic Linear Algebra Subprograms Level 1
      (https://people.math.sc.edu/Burkardt/f_src/blas1_d/blas1_d.html)

    SPARSEKIT - Sparse Matrix Utility Package
      amux, dperm, dvperm, rperm, and cperm
      (https://people.sc.fsu.edu/~jburkardt/f77_src/sparsekit/sparsekit.html)

The following BSD-3 License libraries are used in this USGS product:

    Modern Fortran DAG Library
      Copyright (c) 2018, Jacob Williams
      All rights reserved.
      (https://github.com/jacobwilliams/daglib)

MODFLOW 6 compiler options: -Imac/obj_mf6 -O2 -no-heap-arrays -fpe0
-traceback -fpp -module mac/mod_mf6/ -c -o mac/obj_mf6/compilerversion.o

System command used to initiate simulation:
/Users/mnfienen/.local/share/flopy/bin/mf6

MODFLOW was compiled using uniform precision.

Real Variables
  KIND: 8
  TINY (smallest non-zero value):    2.225074-308
  HUGE (largest value):    1.797693+308
  PRECISION: 15
  SIZE IN BITS: 64

Integer Variables
  KIND: 4
  HUGE (largest value): 2147483647
  SIZE IN BITS: 32

Long Integer Variables
  KIND: 8
  HUGE (largest value): 9223372036854775807
  SIZE IN BITS: 64

Logical Variables
  KIND: 4
  SIZE IN BITS: 32
 
 NAMEFILE OPTIONS:
 END NAMEFILE OPTIONS:

 DIS -- STRUCTURED GRID DISCRETIZATION PACKAGE, VERSION 2 : 3/27/2014 - INPUT READ FROM MEMPATH: __INPUT__/PS2/DIS                                 


 NPF -- NODE PROPERTY FLOW PACKAGE, VERSION 1, 3/30/2015 INPUT READ FROM MEMPATH: __INPUT__/PS2/NPF                                 

 Setting Discretization Options
    Model length unit [0=UND, 1=FEET, 2=METERS, 3=CENTIMETERS] set as 1
    XORIGIN = .000000000000000
    YORIGIN = .000000000000000
    ANGROT = .000000000000000
 End Setting Discretization Options

 Setting Discretization Dimensions
    NLAY = 3
    NROW = 21
    NCOL = 20
 End Setting Discretization Dimensions

 Setting Discretization Griddata
    DELR set from input file
    DELC set from input file
    TOP set from input file
    BOTM set from input file
    IDOMAIN set from input file
 End Setting Discretization Griddata

 Setting NPF Options
    Cell-by-cell flow information will be saved to binary file whenever ICBCFL is not zero.
 End Setting NPF Options

 Setting NPF Griddata
    ICELLTYPE set from input file
    K set from input file
    K33 set from input file
    K22 not provided.  Setting K22 = K.
 End Setting NPF Griddata


 WEL   -- WEL PACKAGE, VERSION 8, 2/22/2014 INPUT READ FROM UNIT 1008
 # File generated by Flopy version 3.4.2 on 09/12/2023 at 13:55:23.

 PROCESSING WEL OPTIONS
 END OF WEL OPTIONS

 PROCESSING WEL DIMENSIONS
    MAXBOUND =       2
 END OF WEL DIMENSIONS

 DRN   -- DRN PACKAGE, VERSION 8, 2/22/2014 INPUT READ FROM UNIT 1009
 # File generated by Flopy version 3.4.2 on 09/12/2023 at 13:55:23.

 PROCESSING DRN OPTIONS
    DRN FLOWS WILL BE PRINTED TO LISTING FILE.
 END OF DRN OPTIONS

 PROCESSING DRN DIMENSIONS
    MAXBOUND =      11
 END OF DRN DIMENSIONS

 RIV   -- RIV PACKAGE, VERSION 8, 2/22/2014 INPUT READ FROM UNIT 1010
 # File generated by Flopy version 3.4.2 on 09/12/2023 at 13:55:23.

 PROCESSING RIV OPTIONS
    FLOWS WILL BE SAVED TO BUDGET FILE SPECIFIED IN OUTPUT CONTROL
 END OF RIV OPTIONS

 PROCESSING RIV DIMENSIONS
    MAXBOUND =      21
 END OF RIV DIMENSIONS

 RCH   -- RCH PACKAGE, VERSION 8, 2/22/2014 INPUT READ FROM UNIT 1011
 # File generated by Flopy version 3.4.2 on 09/12/2023 at 13:55:23.

 PROCESSING RCH OPTIONS
    RECHARGE INPUT WILL BE READ AS ARRAY(S).
 END OF RCHA OPTIONS

 IC -- INITIAL CONDITIONS PACKAGE, VERSION 8, 3/28/2015 INPUT READ FROM UNIT 1006
 # File generated by Flopy version 3.4.2 on 09/12/2023 at 13:55:23.
 PROCESSING GRIDDATA

     INITIAL HEAD =   320.0000     FOR LAYER 1

     INITIAL HEAD =   320.0000     FOR LAYER 2

     INITIAL HEAD =   320.0000     FOR LAYER 3
 END PROCESSING GRIDDATA

 STO -- STORAGE PACKAGE, VERSION 1, 5/19/2014 INPUT READ FROM UNIT 1005


 # File generated by Flopy version 3.4.2 on 09/12/2023 at 13:55:23.
 PROCESSING STORAGE OPTIONS
 END OF STORAGE OPTIONS
 PROCESSING GRIDDATA

                 ICONVERT = 1

         SPECIFIC STORAGE =  0.1000000E-03

           SPECIFIC YIELD =  0.1000000    
 END PROCESSING GRIDDATA
    BINARY GRID INFORMATION WILL BE WRITTEN TO:
      UNIT NUMBER: 1015
      FILE NAME: ps2.dis.grb

 OPENED ps2.dis.grb
 FILE TYPE:DATA(BINARY)   UNIT 1015   STATUS:REPLACE             
 FORMAT:UNFORMATTED            ACCESS:STREAM              
 ACTION:READWRITE           

      THE LAST TIME STEP WILL BE PRINTED
      THE LAST TIME STEP WILL BE PRINTED
 # File generated by Flopy version 3.4.2 on 09/12/2023 at 13:55:23.

 PROCESSING OC OPTIONS

    HEAD INFORMATION WILL BE WRITTEN TO:
      UNIT NUMBER: 1016
      FILE NAME: ps2.hed

 OPENED ps2.hed
 FILE TYPE:DATA(BINARY)   UNIT 1016   STATUS:REPLACE             
 FORMAT:UNFORMATTED            ACCESS:STREAM              
 ACTION:READWRITE           

 END OF OC OPTIONS

start timestep kper="1" kstp="1" mode="normal"


 BEGIN READING OUTPUT CONTROL FOR STRESS PERIOD 1
      ALL TIME STEPS WILL BE SAVED
      ALL TIME STEPS WILL BE PRINTED
      ALL TIME STEPS WILL BE PRINTED

 END READING OUTPUT CONTROL FOR STRESS PERIOD 1


 PROCESSING STORAGE PERIOD DATA
 END PROCESSING STORAGE PERIOD DATA


 STRESS PERIOD 1 IS STEADY-STATE


                 RECHARGE =  0.5000000E-02

 DRN PACKAGE (DRN_0) FLOW RATES   PERIOD      1   STEP        1
 -----------------------------------------------
   NUMBER   CELLID                    RATE      
 -----------------------------------------------
     1      (1,15,10)            -53376.269     
     2      (1,15,11)            -27111.935     
     3      (1,15,12)            -22373.019     
     4      (1,15,13)            -19998.471     
     5      (1,15,14)            -18064.255     
     6      (1,15,15)            -15976.133     
     7      (1,15,16)            -13336.142     
     8      (1,15,17)            -9503.4521     
     9      (1,15,18)            -322.85351     
     10     (1,15,19)             0.0000000     
     11     (1,15,20)             0.0000000     
 -----------------------------------------------



1
  HEAD IN LAYER   1 AT END OF TIME STEP   1 IN STRESS PERIOD    1
  ---------------------------------------------------------------------------

            1        2        3        4        5        6        7        8        9       10       11       12       13       14       15       16       17       18       19       20
 .......................................................................................................................................................................................
   1   336.195  336.136  336.018  335.841  335.607  335.316  334.968  334.562  334.097  333.567  332.963  332.273  331.477  330.554  329.473  328.200  326.693  324.896  322.745  320.155
   2   336.164  336.103  335.982  335.802  335.563  335.266  334.912  334.501  334.032  333.500  332.896  332.208  331.418  330.501  329.428  328.163  326.664  324.877  322.735  320.154
   3   336.103  336.039  335.913  335.724  335.474  335.165  334.798  334.376  333.898  333.361  332.758  332.077  331.297  330.393  329.336  328.088  326.606  324.837  322.714  320.153
   4   336.013  335.945  335.810  335.608  335.341  335.012  334.624  334.181  333.687  333.142  332.541  331.870  331.108  330.227  329.194  327.973  326.518  324.777  322.683  320.152
   5   335.898  335.823  335.676  335.455  335.163  334.804  334.383  333.908  333.388  332.829  332.231  331.577  330.843  329.995  328.999  327.815  326.398  324.695  322.640  320.150
   6   335.760  335.678  335.514  335.268  334.943  334.541  334.070  333.543  332.980  332.398  331.805  331.181  330.489  329.690  328.744  327.610  326.243  324.590  322.585  320.147
   7   335.606  335.514  335.330  335.053  334.683  334.222  333.679  333.071  332.433  331.809  331.231  330.659  330.034  329.305  328.426  327.357  326.052  324.460  322.517  320.144
   8   335.443  335.340  335.132  334.817  334.392  333.854  333.208  332.473  331.700  330.990  330.455  329.983  329.465  328.833  328.041  327.051  325.822  324.304  322.436  320.140
   9   335.277  335.163  334.930  334.574  334.086  333.455  332.672  331.740  330.713  329.786  329.400  329.131  328.779  328.274  327.587  326.691  325.551  324.121  322.341  320.135
  10   335.119  334.993  334.736  334.340  333.788  333.058  332.114  330.907  329.400  327.790  327.983  328.118  327.996  327.638  327.066  326.275  325.237  323.909  322.231  320.130
  11   334.976  334.840  334.563  334.132  333.527  332.714  331.632  330.154  327.916  323.605  326.336  327.092  327.180  326.944  326.478  325.795  324.873  323.664  322.106  320.123
  12   334.854  334.712  334.420  333.966  333.327  332.470  331.348  329.906  328.115  326.233  326.305  326.441  326.403  326.189  325.804  325.237  324.450  323.385  321.965  320.117
  13   334.760  334.614  334.315  333.849  333.193  332.316  331.180  329.759  328.107  326.545  325.904  325.657  325.496  325.293  324.995  324.564  323.951  323.073  321.814  320.109
  14   334.695  334.548  334.249  333.782  333.125  332.243  331.087  329.596  327.722  325.617  324.781  324.458  324.296  324.155  323.977  323.725  323.350  322.749  321.674  320.103
  15   334.658  334.515  334.222  333.766  333.126  332.264  331.119  329.562  327.254  323.034  322.771  322.724  322.700  322.681  322.660  322.633  322.595  322.503  321.594  320.099
  16   334.646  334.508  334.228  333.795  333.192  332.392  331.353  330.013  328.299  326.290  325.369  324.885  324.567  324.307  324.048  323.747  323.347  322.738  321.665  320.102
  17   334.652  334.523  334.260  333.857  333.303  332.585  331.685  330.594  329.338  328.061  327.148  326.504  326.004  325.560  325.106  324.586  323.929  323.041  321.792  320.108
  18   334.671  334.549  334.304  333.933  333.430  332.792  332.019  331.122  330.144  329.175  328.347  327.659  327.059  326.490  325.894  325.212  324.379  323.312  321.919  320.114
  19   334.692  334.578  334.350  334.006  333.546  332.974  332.296  331.532  330.714  329.898  329.138  328.444  327.793  327.144  326.451  325.660  324.707  323.522  322.022  320.119
  20   334.711  334.603  334.386  334.062  333.633  333.106  332.490  331.805  331.077  330.340  329.622  328.932  328.254  327.560  326.807  325.948  324.922  323.663  322.093  320.123
  21   334.722  334.616  334.406  334.092  333.680  333.175  332.589  331.941  331.253  330.550  329.853  329.165  328.477  327.761  326.981  326.089  325.028  323.734  322.129  320.124
1
  HEAD IN LAYER   2 AT END OF TIME STEP   1 IN STRESS PERIOD    1
  ---------------------------------------------------------------------------

            1        2        3        4        5        6        7        8        9       10       11       12       13       14       15       16       17       18       19       20
 .......................................................................................................................................................................................
   1   333.265  333.229  333.157  333.049  332.907  332.731  332.521  332.279  332.002  331.690  331.339  330.943  330.494  329.981  329.391  328.708  327.912  326.979  325.877  324.569
   2   333.247  333.210  333.137  333.027  332.882  332.703  332.490  332.245  331.966  331.653  331.302  330.908  330.461  329.952  329.366  328.687  327.895  326.966  325.870  324.566
   3   333.212  333.173  333.097  332.983  332.833  332.647  332.428  332.176  331.893  331.577  331.227  330.835  330.394  329.892  329.314  328.644  327.861  326.942  325.855  324.561
   4   333.160  333.119  333.038  332.917  332.758  332.562  332.331  332.069  331.778  331.458  331.109  330.722  330.290  329.799  329.234  328.578  327.810  326.904  325.832  324.554
   5   333.093  333.049  332.962  332.831  332.659  332.447  332.199  331.920  331.616  331.289  330.940  330.563  330.145  329.672  329.126  328.488  327.739  326.854  325.801  324.544
   6   333.014  332.966  332.869  332.726  332.536  332.302  332.029  331.724  331.396  331.058  330.712  330.350  329.954  329.505  328.985  328.373  327.650  326.790  325.763  324.532
   7   332.925  332.872  332.765  332.605  332.392  332.128  331.817  331.471  331.105  330.745  330.407  330.071  329.709  329.296  328.810  328.232  327.541  326.712  325.717  324.518
   8   332.830  332.771  332.652  332.473  332.231  331.928  331.565  331.153  330.719  330.315  329.998  329.713  329.406  329.042  328.600  328.063  327.411  326.620  325.663  324.503
   9   332.734  332.669  332.537  332.337  332.063  331.711  331.278  330.767  330.205  329.692  329.450  329.266  329.042  328.743  328.355  327.866  327.259  326.513  325.601  324.487
  10   332.641  332.570  332.426  332.205  331.898  331.496  330.981  330.331  329.528  328.673  328.719  328.738  328.630  328.405  328.076  327.640  327.085  326.392  325.531  324.470
  11   332.557  332.481  332.326  332.087  331.753  331.308  330.724  329.936  328.767  326.565  327.875  328.205  328.202  328.039  327.763  327.383  326.887  326.254  325.454  324.452
  12   332.484  332.405  332.242  331.991  331.639  331.172  330.566  329.796  328.849  327.856  327.841  327.860  327.794  327.643  327.409  327.087  326.660  326.100  325.370  324.435
  13   332.426  332.345  332.178  331.920  331.560  331.082  330.469  329.709  328.831  327.997  327.624  327.452  327.324  327.178  326.988  326.736  326.396  325.930  325.282  324.419
  14   332.384  332.302  332.135  331.877  331.516  331.035  330.412  329.617  328.627  327.521  327.051  326.839  326.711  326.596  326.466  326.303  326.084  325.757  325.200  324.405
  15   332.357  332.277  332.114  331.861  331.508  331.038  330.420  329.592  328.385  326.225  326.039  325.965  325.905  325.851  325.799  325.749  325.698  325.625  325.152  324.395
  16   332.345  332.267  332.111  331.869  331.536  331.096  330.532  329.813  328.903  327.845  327.332  327.040  326.833  326.658  326.487  326.299  326.067  325.736  325.181  324.390
  17   332.343  332.269  332.121  331.895  331.587  331.189  330.695  330.101  329.422  328.730  328.221  327.848  327.550  327.282  327.014  326.716  326.355  325.883  325.240  324.388
  18   332.348  332.279  332.140  331.930  331.648  331.291  330.861  330.365  329.825  329.289  328.823  328.428  328.079  327.748  327.408  327.028  326.578  326.017  325.300  324.388
  19   332.356  332.291  332.160  331.965  331.704  331.381  330.999  330.570  330.112  329.652  329.221  328.823  328.448  328.077  327.687  327.252  326.741  326.121  325.350  324.389
  20   332.364  332.301  332.177  331.991  331.747  331.446  331.096  330.707  330.294  329.875  329.465  329.069  328.681  328.286  327.866  327.396  326.849  326.191  325.385  324.389
  21   332.368  332.307  332.186  332.006  331.769  331.481  331.146  330.776  330.383  329.981  329.581  329.186  328.793  328.388  327.954  327.467  326.902  326.226  325.402  324.390
1
  HEAD IN LAYER   3 AT END OF TIME STEP   1 IN STRESS PERIOD    1
  ---------------------------------------------------------------------------

            1        2        3        4        5        6        7        8        9       10       11       12       13       14       15       16       17       18       19       20
 .......................................................................................................................................................................................
   1   330.347  330.334  330.308  330.269  330.218  330.157  330.085  330.004  329.916  329.821  329.722  329.619  329.515  329.411  329.310  329.214  329.127  329.053  328.997  328.965
   2   330.342  330.329  330.303  330.264  330.213  330.151  330.079  329.998  329.909  329.815  329.715  329.612  329.508  329.405  329.304  329.208  329.122  329.048  328.992  328.960
   3   330.332  330.319  330.292  330.253  330.202  330.139  330.066  329.985  329.896  329.801  329.702  329.599  329.495  329.392  329.292  329.197  329.111  329.038  328.982  328.951
   4   330.318  330.305  330.277  330.237  330.185  330.122  330.048  329.966  329.876  329.781  329.681  329.579  329.476  329.374  329.275  329.181  329.096  329.023  328.969  328.937
   5   330.300  330.286  330.258  330.217  330.164  330.099  330.025  329.941  329.851  329.755  329.655  329.553  329.451  329.350  329.252  329.160  329.076  329.005  328.950  328.920
   6   330.278  330.264  330.236  330.194  330.139  330.073  329.996  329.911  329.819  329.723  329.623  329.522  329.421  329.321  329.224  329.134  329.052  328.982  328.929  328.899
   7   330.254  330.239  330.210  330.167  330.110  330.042  329.964  329.877  329.783  329.685  329.586  329.485  329.385  329.287  329.193  329.104  329.024  328.956  328.904  328.875
   8   330.228  330.213  330.182  330.138  330.079  330.009  329.928  329.838  329.743  329.644  329.544  329.444  329.346  329.250  329.158  329.071  328.993  328.927  328.877  328.848
   9   330.201  330.185  330.154  330.108  330.047  329.975  329.891  329.798  329.700  329.599  329.499  329.401  329.304  329.210  329.120  329.036  328.961  328.896  328.848  328.820
  10   330.174  330.158  330.125  330.078  330.016  329.940  329.854  329.758  329.656  329.552  329.453  329.356  329.261  329.169  329.082  329.000  328.927  328.865  328.818  328.792
  11   330.148  330.131  330.098  330.049  329.985  329.908  329.819  329.720  329.615  329.507  329.408  329.312  329.219  329.129  329.044  328.964  328.894  328.834  328.789  328.763
  12   330.123  330.106  330.073  330.023  329.958  329.879  329.788  329.687  329.580  329.473  329.371  329.273  329.180  329.091  329.007  328.930  328.862  328.804  328.761  328.736
  13   330.101  330.084  330.050  329.999  329.934  329.853  329.761  329.659  329.551  329.443  329.338  329.239  329.145  329.056  328.974  328.899  328.832  328.777  328.735  328.712
  14   330.082  330.065  330.030  329.980  329.913  329.833  329.740  329.637  329.528  329.417  329.311  329.211  329.116  329.028  328.946  328.872  328.807  328.753  328.713  328.690
  15   330.066  330.048  330.014  329.963  329.897  329.817  329.724  329.622  329.512  329.399  329.292  329.191  329.096  329.007  328.925  328.852  328.788  328.735  328.695  328.673
  16   330.052  330.035  330.001  329.951  329.886  329.806  329.715  329.613  329.505  329.395  329.288  329.186  329.089  328.999  328.916  328.841  328.776  328.722  328.682  328.660
  17   330.042  330.025  329.991  329.942  329.877  329.799  329.710  329.610  329.505  329.397  329.291  329.188  329.090  328.999  328.914  328.837  328.770  328.715  328.673  328.650
  18   330.034  330.017  329.984  329.936  329.872  329.796  329.708  329.611  329.508  329.402  329.297  329.194  329.095  329.002  328.915  328.837  328.768  328.711  328.668  328.644
  19   330.029  330.012  329.980  329.931  329.869  329.794  329.708  329.613  329.512  329.407  329.303  329.200  329.101  329.006  328.918  328.838  328.768  328.709  328.665  328.640
  20   330.025  330.009  329.977  329.929  329.867  329.793  329.708  329.615  329.515  329.412  329.308  329.205  329.105  329.010  328.921  328.840  328.768  328.708  328.663  328.638
  21   330.024  330.007  329.975  329.928  329.867  329.793  329.709  329.616  329.517  329.414  329.310  329.208  329.108  329.012  328.923  328.841  328.768  328.708  328.663  328.637

 HEAD WILL BE SAVED ON UNIT 1016 AT END OF TIME STEP    1, STRESS PERIOD    1


  VOLUME BUDGET FOR ENTIRE MODEL AT END OF TIME STEP    1, STRESS PERIOD   1
  ---------------------------------------------------------------------------------------------------

     CUMULATIVE VOLUME      L**3       RATES FOR THIS TIME STEP      L**3/T          PACKAGE NAME    
     ------------------                 ------------------------                     ----------------

           IN:                                      IN:
           ---                                      ---
              STO-SS =           0.0000                STO-SS =           0.0000     STORAGE                          
              STO-SY =           0.0000                STO-SY =           0.0000     STORAGE                          
                 WEL =           0.0000                   WEL =           0.0000     WEL_0                            
                 DRN =           0.0000                   DRN =           0.0000     DRN_0                            
                 RIV =           0.0000                   RIV =           0.0000     RIV_0                            
                RCHA =      525000.0000                  RCHA =      525000.0000     RCHA_0                           

            TOTAL IN =      525000.0000              TOTAL IN =      525000.0000

          OUT:                                     OUT:
          ----                                     ----
              STO-SS =           0.0000                STO-SS =           0.0000     STORAGE                          
              STO-SY =           0.0000                STO-SY =           0.0000     STORAGE                          
                 WEL =       75000.0000                   WEL =       75000.0000     WEL_0                            
                 DRN =      180062.5287                   DRN =      180062.5287     DRN_0                            
                 RIV =      269931.9172                   RIV =      269931.9172     RIV_0                            
                RCHA =           0.0000                  RCHA =           0.0000     RCHA_0                           

           TOTAL OUT =      524994.4459             TOTAL OUT =      524994.4459

            IN - OUT =           5.5541              IN - OUT =           5.5541

 PERCENT DISCREPANCY =           0.00     PERCENT DISCREPANCY =           0.00




         TIME SUMMARY AT END OF TIME STEP    1 IN STRESS PERIOD    1
                    SECONDS     MINUTES      HOURS       DAYS        YEARS
                    -----------------------------------------------------------
   TIME STEP LENGTH  86400.      1440.0      24.000      1.0000     2.73785E-03
 STRESS PERIOD TIME  86400.      1440.0      24.000      1.0000     2.73785E-03
         TOTAL TIME  86400.      1440.0      24.000      1.0000     2.73785E-03


end timestep


start timestep kper="2" kstp="1" mode="normal"


 END OF FILE DETECTED IN OUTPUT CONTROL.
 CURRENT OUTPUT CONTROL SETTINGS WILL BE 
 REPEATED UNTIL THE END OF THE SIMULATION.

 OUTPUT CONTROL FOR STRESS PERIOD 2 IS REPEATED USING SETTINGS FROM A PREVIOUS STRESS PERIOD.


 PROCESSING STORAGE PERIOD DATA
 END PROCESSING STORAGE PERIOD DATA


 STRESS PERIOD 2 IS TRANSIENT


 REUSING DRNS FROM LAST STRESS PERIOD

 REUSING RIVS FROM LAST STRESS PERIOD

 REUSING RCHS FROM LAST STRESS PERIOD

 DRN PACKAGE (DRN_0) FLOW RATES   PERIOD      2   STEP        1
 -----------------------------------------------
   NUMBER   CELLID                    RATE      
 -----------------------------------------------
     1      (1,15,10)            -45988.794     
     2      (1,15,11)            -23230.088     
     3      (1,15,12)            -19182.668     
     4      (1,15,13)            -17175.028     
     5      (1,15,14)            -15507.798     
     6      (1,15,15)            -13645.411     
     7      (1,15,16)            -11196.913     
     8      (1,15,17)            -7159.6263     
     9      (1,15,18)             0.0000000     
     10     (1,15,19)             0.0000000     
     11     (1,15,20)             0.0000000     
 -----------------------------------------------



1
  HEAD IN LAYER   1 AT END OF TIME STEP   1 IN STRESS PERIOD    2
  ---------------------------------------------------------------------------

            1        2        3        4        5        6        7        8        9       10       11       12       13       14       15       16       17       18       19       20
 .......................................................................................................................................................................................
   1   334.847  334.793  334.684  334.521  334.305  334.037  333.717  333.344  332.916  332.429  331.874  331.239  330.507  329.658  328.664  327.493  326.109  324.463  322.497  320.140
   2   334.815  334.759  334.647  334.481  334.260  333.986  333.661  333.283  332.851  332.363  331.808  331.176  330.450  329.607  328.620  327.458  326.081  324.444  322.488  320.140
   3   334.750  334.691  334.574  334.400  334.169  333.884  333.547  333.158  332.718  332.226  331.673  331.048  330.332  329.503  328.531  327.386  326.026  324.406  322.468  320.139
   4   334.655  334.592  334.467  334.280  334.033  333.729  333.371  332.964  332.510  332.010  331.460  330.847  330.149  329.342  328.395  327.276  325.943  324.349  322.438  320.137
   5   334.533  334.464  334.327  334.122  333.852  333.520  333.130  332.692  332.214  331.703  331.157  330.562  329.892  329.119  328.209  327.125  325.828  324.272  322.398  320.135
   6   334.388  334.311  334.159  333.930  333.627  333.254  332.818  332.331  331.812  331.280  330.742  330.178  329.552  328.828  327.967  326.932  325.683  324.173  322.346  320.133
   7   334.225  334.140  333.968  333.709  333.364  332.934  332.429  331.864  331.274  330.703  330.183  329.673  329.116  328.461  327.666  326.694  325.504  324.052  322.283  320.130
   8   334.053  333.956  333.762  333.468  333.070  332.567  331.963  331.275  330.555  329.902  329.429  329.023  328.574  328.016  327.306  326.410  325.292  323.909  322.209  320.126
   9   333.879  333.771  333.553  333.219  332.762  332.170  331.434  330.556  329.587  328.724  328.406  328.207  327.926  327.495  326.887  326.080  325.045  323.743  322.123  320.122
  10   333.712  333.594  333.353  332.981  332.464  331.779  330.890  329.745  328.303  326.760  327.035  327.247  327.197  326.911  326.414  325.705  324.763  323.553  322.025  320.117
  11   333.563  333.436  333.175  332.771  332.205  331.445  330.430  329.025  326.863  322.609  325.456  326.298  326.458  326.289  325.890  325.281  324.443  323.339  321.915  320.112
  12   333.439  333.305  333.031  332.605  332.010  331.216  330.176  328.828  327.142  325.365  325.540  325.758  325.787  325.632  325.304  324.797  324.079  323.099  321.795  320.106
  13   333.346  333.208  332.928  332.493  331.884  331.082  330.045  328.746  327.239  325.829  325.298  325.129  325.024  324.867  324.612  324.224  323.657  322.837  321.669  320.100
  14   333.285  333.148  332.870  332.438  331.835  331.034  329.991  328.651  326.980  325.126  324.406  324.142  324.016  323.903  323.749  323.520  323.164  322.575  321.554  320.094
  15   333.255  333.122  332.852  332.435  331.852  331.075  330.049  328.664  326.630  322.960  322.732  322.692  322.672  322.655  322.636  322.612  322.572  322.390  321.493  320.091
  16   333.251  333.125  332.869  332.475  331.929  331.210  330.282  329.092  327.580  325.820  325.012  324.586  324.304  324.070  323.833  323.552  323.170  322.569  321.549  320.094
  17   333.265  333.147  332.908  332.544  332.045  331.401  330.597  329.628  328.516  327.390  326.584  326.012  325.566  325.164  324.749  324.267  323.653  322.817  321.652  320.099
  18   333.290  333.180  332.959  332.624  332.172  331.600  330.910  330.112  329.243  328.384  327.648  327.034  326.496  325.980  325.434  324.806  324.034  323.044  321.758  320.104
  19   333.318  333.215  333.008  332.699  332.286  331.774  331.168  330.486  329.758  329.031  328.353  327.732  327.144  326.555  325.921  325.194  324.315  323.223  321.846  320.108
  20   333.340  333.242  333.047  332.756  332.372  331.899  331.349  330.736  330.086  329.428  328.786  328.166  327.553  326.922  326.234  325.444  324.501  323.344  321.906  320.111
  21   333.353  333.258  333.068  332.787  332.417  331.964  331.441  330.861  330.246  329.617  328.992  328.373  327.751  327.100  326.386  325.567  324.593  323.405  321.937  320.113
1
  HEAD IN LAYER   2 AT END OF TIME STEP   1 IN STRESS PERIOD    2
  ---------------------------------------------------------------------------

            1        2        3        4        5        6        7        8        9       10       11       12       13       14       15       16       17       18       19       20
 .......................................................................................................................................................................................
   1   331.357  331.326  331.263  331.169  331.045  330.891  330.708  330.496  330.254  329.979  329.668  329.316  328.914  328.452  327.918  327.298  326.574  325.723  324.719  323.530
   2   331.334  331.301  331.237  331.142  331.015  330.859  330.674  330.459  330.215  329.940  329.630  329.279  328.880  328.422  327.893  327.277  326.557  325.710  324.711  323.527
   3   331.287  331.254  331.187  331.087  330.956  330.794  330.603  330.384  330.136  329.860  329.551  329.205  328.812  328.362  327.841  327.234  326.522  325.685  324.696  323.521
   4   331.219  331.183  331.112  331.006  330.867  330.696  330.496  330.267  330.014  329.735  329.429  329.089  328.707  328.269  327.761  327.168  326.471  325.648  324.672  323.512
   5   331.130  331.091  331.014  330.899  330.748  330.564  330.348  330.106  329.841  329.558  329.256  328.927  328.561  328.141  327.653  327.079  326.401  325.597  324.641  323.500
   6   331.023  330.980  330.894  330.767  330.601  330.396  330.158  329.893  329.610  329.319  329.023  328.712  328.369  327.976  327.514  326.966  326.313  325.534  324.602  323.486
   7   330.901  330.853  330.757  330.614  330.426  330.194  329.924  329.622  329.306  328.998  328.714  328.433  328.126  327.770  327.343  326.829  326.207  325.458  324.556  323.470
   8   330.769  330.714  330.605  330.442  330.227  329.961  329.644  329.285  328.907  328.562  328.304  328.078  327.828  327.523  327.141  326.666  326.082  325.369  324.502  323.452
   9   330.632  330.569  330.444  330.258  330.011  329.703  329.326  328.877  328.380  327.934  327.758  327.639  327.476  327.237  326.908  326.480  325.940  325.268  324.442  323.434
  10   330.497  330.425  330.282  330.068  329.786  329.437  328.993  328.420  327.694  326.913  327.037  327.127  327.083  326.920  326.648  326.271  325.779  325.155  324.376  323.415
  11   330.373  330.291  330.125  329.877  329.555  329.185  328.697  328.009  326.932  324.806  326.216  326.623  326.687  326.584  326.364  326.039  325.600  325.030  324.304  323.396
  12   330.270  330.177  329.987  329.690  329.298  328.968  328.505  327.865  327.036  326.149  326.230  326.328  326.328  326.233  326.050  325.777  325.400  324.893  324.228  323.377
  13   330.197  330.098  329.889  329.532  328.907  328.799  328.394  327.794  327.060  326.358  326.088  325.993  325.926  325.832  325.686  325.474  325.173  324.747  324.151  323.360
  14   330.160  330.066  329.873  329.574  329.178  328.844  328.380  327.743  326.921  325.995  325.628  325.485  325.408  325.335  325.240  325.107  324.913  324.603  324.081  323.345
  15   330.154  330.069  329.898  329.643  329.313  328.934  328.441  327.762  326.749  324.912  324.787  324.753  324.727  324.702  324.674  324.644  324.606  324.500  324.040  323.334
  16   330.169  330.093  329.942  329.717  329.421  329.055  328.591  327.995  327.234  326.344  325.927  325.698  325.539  325.404  325.266  325.107  324.898  324.583  324.061  323.328
  17   330.196  330.128  329.992  329.791  329.523  329.189  328.778  328.284  327.716  327.138  326.718  326.414  326.171  325.950  325.722  325.461  325.136  324.702  324.107  323.325
  18   330.227  330.165  330.042  329.859  329.617  329.317  328.957  328.544  328.093  327.645  327.258  326.930  326.639  326.359  326.065  325.730  325.324  324.813  324.157  323.323
  19   330.256  330.199  330.086  329.917  329.696  329.423  329.104  328.745  328.362  327.978  327.618  327.284  326.967  326.650  326.310  325.924  325.464  324.901  324.199  323.323
  20   330.277  330.224  330.117  329.959  329.752  329.499  329.206  328.880  328.534  328.183  327.839  327.505  327.175  326.835  326.467  326.050  325.557  324.960  324.228  323.323
  21   330.289  330.237  330.134  329.981  329.781  329.538  329.257  328.947  328.618  328.281  327.945  327.612  327.275  326.925  326.544  326.111  325.603  324.990  324.243  323.323
1
  HEAD IN LAYER   3 AT END OF TIME STEP   1 IN STRESS PERIOD    2
  ---------------------------------------------------------------------------

            1        2        3        4        5        6        7        8        9       10       11       12       13       14       15       16       17       18       19       20
 .......................................................................................................................................................................................
   1   327.869  327.860  327.843  327.819  327.786  327.747  327.701  327.648  327.591  327.528  327.460  327.390  327.316  327.241  327.167  327.095  327.028  326.970  326.926  326.900
   2   327.855  327.846  327.829  327.804  327.772  327.733  327.687  327.635  327.578  327.516  327.449  327.379  327.307  327.233  327.159  327.088  327.022  326.964  326.920  326.894
   3   327.826  327.818  327.801  327.776  327.744  327.705  327.660  327.609  327.553  327.493  327.428  327.359  327.288  327.216  327.143  327.073  327.008  326.952  326.908  326.882
   4   327.784  327.775  327.758  327.733  327.702  327.664  327.620  327.570  327.516  327.458  327.395  327.329  327.260  327.190  327.120  327.052  326.989  326.933  326.891  326.866
   5   327.728  327.719  327.702  327.677  327.645  327.608  327.566  327.519  327.467  327.412  327.352  327.290  327.224  327.157  327.090  327.025  326.963  326.910  326.869  326.844
   6   327.659  327.649  327.631  327.605  327.574  327.538  327.498  327.455  327.407  327.355  327.300  327.242  327.181  327.118  327.054  326.992  326.933  326.882  326.842  326.819
   7   327.578  327.567  327.546  327.519  327.487  327.453  327.417  327.378  327.336  327.290  327.240  327.187  327.131  327.072  327.013  326.954  326.899  326.850  326.812  326.790
   8   327.485  327.472  327.448  327.416  327.383  327.352  327.322  327.290  327.255  327.216  327.173  327.126  327.076  327.023  326.968  326.913  326.862  326.816  326.780  326.758
   9   327.385  327.367  327.335  327.295  327.259  327.233  327.213  327.193  327.167  327.136  327.101  327.062  327.018  326.971  326.921  326.871  326.822  326.779  326.745  326.725
  10   327.281  327.256  327.209  327.152  327.105  327.091  327.091  327.089  327.076  327.055  327.029  326.998  326.961  326.919  326.873  326.827  326.783  326.743  326.711  326.692
  11   327.182  327.145  327.074  326.980  326.901  326.920  326.959  326.984  326.990  326.978  326.962  326.938  326.906  326.869  326.828  326.785  326.744  326.707  326.677  326.659
  12   327.099  327.048  326.940  326.772  326.582  326.714  326.829  326.893  326.919  326.919  326.907  326.886  326.857  326.823  326.785  326.746  326.708  326.673  326.645  326.629
  13   327.046  326.986  326.847  326.567  325.924  326.510  326.736  326.833  326.871  326.876  326.865  326.844  326.817  326.784  326.748  326.711  326.675  326.642  326.616  326.601
  14   327.033  326.982  326.874  326.706  326.517  326.648  326.763  326.827  326.852  326.851  326.837  326.814  326.785  326.753  326.717  326.682  326.647  326.616  326.591  326.576
  15   327.051  327.014  326.942  326.848  326.770  326.789  326.828  326.853  326.857  326.845  326.824  326.797  326.766  326.732  326.696  326.660  326.626  326.596  326.571  326.557
  16   327.085  327.060  327.013  326.956  326.909  326.895  326.895  326.892  326.880  326.857  326.829  326.797  326.761  326.724  326.686  326.648  326.613  326.581  326.556  326.541
  17   327.125  327.107  327.075  327.035  326.999  326.973  326.954  326.934  326.908  326.878  326.843  326.805  326.765  326.724  326.683  326.643  326.605  326.572  326.546  326.530
  18   327.162  327.149  327.124  327.093  327.060  327.030  327.001  326.970  326.937  326.900  326.859  326.817  326.773  326.729  326.685  326.642  326.602  326.567  326.539  326.523
  19   327.193  327.182  327.161  327.134  327.103  327.070  327.036  327.000  326.961  326.919  326.875  326.829  326.782  326.735  326.688  326.643  326.601  326.564  326.535  326.518
  20   327.214  327.204  327.186  327.160  327.130  327.096  327.059  327.020  326.978  326.933  326.886  326.838  326.789  326.740  326.691  326.644  326.601  326.563  326.533  326.515
  21   327.225  327.216  327.198  327.173  327.143  327.109  327.071  327.030  326.986  326.940  326.892  326.843  326.793  326.742  326.693  326.645  326.601  326.562  326.532  326.514

 HEAD WILL BE SAVED ON UNIT 1016 AT END OF TIME STEP    1, STRESS PERIOD    2


  VOLUME BUDGET FOR ENTIRE MODEL AT END OF TIME STEP    1, STRESS PERIOD   2
  ---------------------------------------------------------------------------------------------------

     CUMULATIVE VOLUME      L**3       RATES FOR THIS TIME STEP      L**3/T          PACKAGE NAME    
     ------------------                 ------------------------                     ----------------

           IN:                                      IN:
           ---                                      ---
              STO-SS =     6509736.9102                STO-SS =       20212.3012     STORAGE                          
              STO-SY =     8998011.0710                STO-SY =       27938.2273     STORAGE                          
                 WEL =           0.0000                   WEL =           0.0000     WEL_0                            
                 DRN =           0.0000                   DRN =           0.0000     DRN_0                            
                 RIV =           0.0000                   RIV =           0.0000     RIV_0                            
                RCHA =   169610738.9056                  RCHA =      525000.0000     RCHA_0                           

            TOTAL IN =   185118486.8869              TOTAL IN =      573150.5285

          OUT:                                     OUT:
          ----                                     ----
              STO-SS =           0.0000                STO-SS =           0.0000     STORAGE                          
              STO-SY =           0.0000                STO-SY =           0.0000     STORAGE                          
                 WEL =    56436912.9685                   WEL =      175000.0000     WEL_0                            
                 DRN =    49484280.4892                   DRN =      153086.3253     DRN_0                            
                 RIV =    79197864.9348                   RIV =      245065.9949     RIV_0                            
                RCHA =           0.0000                  RCHA =           0.0000     RCHA_0                           

           TOTAL OUT =   185119058.3926             TOTAL OUT =      573152.3202

            IN - OUT =        -571.5057              IN - OUT =          -1.7917

 PERCENT DISCREPANCY =          -0.00     PERCENT DISCREPANCY =          -0.00




         TIME SUMMARY AT END OF TIME STEP    1 IN STRESS PERIOD    2
                    SECONDS     MINUTES      HOURS       DAYS        YEARS
                    -----------------------------------------------------------
   TIME STEP LENGTH 2.78267E+07 4.63778E+05  7729.6      322.07     0.88177    
 STRESS PERIOD TIME 2.78267E+07 4.63778E+05  7729.6      322.07     0.88177    
         TOTAL TIME 2.79131E+07 4.65218E+05  7753.6      323.07     0.88451    


end timestep


start timestep kper="2" kstp="2" mode="normal"


 DRN PACKAGE (DRN_0) FLOW RATES   PERIOD      2   STEP        2
 -----------------------------------------------
   NUMBER   CELLID                    RATE      
 -----------------------------------------------
     1      (1,15,10)            -41284.939     
     2      (1,15,11)            -20864.963     
     3      (1,15,12)            -17296.604     
     4      (1,15,13)            -15548.087     
     5      (1,15,14)            -14069.759     
     6      (1,15,15)            -12365.266     
     7      (1,15,16)            -10048.369     
     8      (1,15,17)            -5892.0249     
     9      (1,15,18)             0.0000000     
     10     (1,15,19)             0.0000000     
     11     (1,15,20)             0.0000000     
 -----------------------------------------------



1
  HEAD IN LAYER   1 AT END OF TIME STEP   2 IN STRESS PERIOD    2
  ---------------------------------------------------------------------------

            1        2        3        4        5        6        7        8        9       10       11       12       13       14       15       16       17       18       19       20
 .......................................................................................................................................................................................
   1   333.768  333.718  333.617  333.468  333.269  333.022  332.728  332.386  331.993  331.546  331.037  330.453  329.779  328.995  328.075  326.990  325.702  324.169  322.334  320.131
   2   333.736  333.685  333.582  333.428  333.225  332.974  332.674  332.327  331.931  331.482  330.973  330.393  329.724  328.946  328.034  326.956  325.677  324.151  322.325  320.131
   3   333.674  333.620  333.512  333.351  333.138  332.875  332.564  332.206  331.803  331.351  330.844  330.270  329.612  328.848  327.950  326.888  325.625  324.116  322.307  320.130
   4   333.582  333.524  333.408  333.235  333.006  332.725  332.395  332.019  331.602  331.143  330.639  330.077  329.437  328.695  327.822  326.785  325.547  324.063  322.279  320.129
   5   333.465  333.401  333.273  333.083  332.832  332.523  332.162  331.757  331.316  330.847  330.348  329.805  329.193  328.484  327.646  326.644  325.440  323.991  322.242  320.127
   6   333.325  333.254  333.111  332.898  332.615  332.267  331.861  331.408  330.928  330.439  329.949  329.438  328.870  328.209  327.418  326.463  325.304  323.899  322.194  320.124
   7   333.169  333.089  332.928  332.686  332.362  331.959  331.485  330.957  330.408  329.882  329.411  328.955  328.456  327.863  327.137  326.241  325.139  323.788  322.137  320.122
   8   333.004  332.914  332.732  332.455  332.081  331.607  331.037  330.388  329.711  329.105  328.685  328.333  327.942  327.445  326.802  325.979  324.944  323.657  322.069  320.118
   9   332.839  332.738  332.533  332.219  331.787  331.228  330.530  329.694  328.771  327.958  327.696  327.555  327.331  326.959  326.414  325.676  324.719  323.506  321.991  320.114
  10   332.682  332.570  332.344  331.994  331.506  330.857  330.011  328.913  327.522  326.030  326.369  326.642  326.650  326.421  325.982  325.336  324.464  323.335  321.903  320.110
  11   332.542  332.423  332.178  331.799  331.266  330.547  329.581  328.232  326.126  321.916  324.849  325.757  325.974  325.857  325.510  324.955  324.178  323.144  321.805  320.105
  12   332.428  332.303  332.046  331.648  331.090  330.344  329.363  328.084  326.474  324.774  325.024  325.303  325.384  325.274  324.989  324.526  323.856  322.933  321.699  320.100
  13   332.344  332.216  331.955  331.550  330.983  330.236  329.269  328.057  326.653  325.350  324.899  324.786  324.723  324.602  324.378  324.021  323.487  322.704  321.589  320.095
  14   332.292  332.165  331.907  331.508  330.950  330.211  329.249  328.017  326.487  324.805  324.164  323.943  323.844  323.752  323.615  323.401  323.060  322.478  321.491  320.090
  15   332.269  332.147  331.898  331.514  330.979  330.267  329.328  328.064  326.220  322.913  322.709  322.673  322.655  322.641  322.624  322.600  322.559  322.322  321.439  320.088
  16   332.270  332.155  331.921  331.560  331.062  330.405  329.559  328.478  327.109  325.521  324.793  324.409  324.152  323.936  323.715  323.448  323.076  322.480  321.489  320.090
  17   332.289  332.181  331.964  331.631  331.177  330.591  329.862  328.983  327.977  326.960  326.231  325.714  325.306  324.936  324.548  324.092  323.504  322.699  321.581  320.094
  18   332.317  332.217  332.016  331.711  331.301  330.783  330.157  329.435  328.649  327.872  327.206  326.648  326.156  325.679  325.170  324.578  323.845  322.901  321.675  320.099
  19   332.346  332.253  332.066  331.785  331.412  330.948  330.400  329.783  329.125  328.467  327.852  327.286  326.748  326.203  325.612  324.928  324.098  323.061  321.753  320.103
  20   332.369  332.281  332.104  331.841  331.493  331.066  330.569  330.015  329.428  328.832  328.249  327.683  327.121  326.537  325.895  325.154  324.264  323.170  321.807  320.105
  21   332.382  332.296  332.125  331.871  331.536  331.128  330.655  330.131  329.575  329.005  328.437  327.873  327.301  326.699  326.034  325.265  324.347  323.224  321.835  320.107
1
  HEAD IN LAYER   2 AT END OF TIME STEP   2 IN STRESS PERIOD    2
  ---------------------------------------------------------------------------

            1        2        3        4        5        6        7        8        9       10       11       12       13       14       15       16       17       18       19       20
 .......................................................................................................................................................................................
   1   330.355  330.326  330.269  330.183  330.070  329.929  329.762  329.568  329.347  329.096  328.812  328.489  328.120  327.695  327.202  326.628  325.955  325.163  324.228  323.117
   2   330.332  330.303  330.244  330.156  330.041  329.898  329.728  329.532  329.309  329.058  328.775  328.454  328.088  327.666  327.178  326.608  325.939  325.152  324.220  323.114
   3   330.287  330.256  330.195  330.103  329.983  329.835  329.660  329.459  329.233  328.981  328.699  328.383  328.023  327.609  327.129  326.567  325.907  325.128  324.206  323.108
   4   330.220  330.187  330.122  330.025  329.897  329.740  329.556  329.347  329.115  328.861  328.582  328.272  327.922  327.521  327.053  326.505  325.859  325.093  324.184  323.099
   5   330.134  330.098  330.027  329.921  329.782  329.612  329.413  329.191  328.949  328.690  328.416  328.117  327.783  327.400  326.951  326.422  325.794  325.046  324.154  323.088
   6   330.030  329.990  329.911  329.793  329.639  329.450  329.230  328.985  328.725  328.460  328.191  327.911  327.601  327.243  326.821  326.316  325.712  324.987  324.118  323.075
   7   329.912  329.867  329.778  329.645  329.470  329.254  329.003  328.723  328.431  328.149  327.894  327.643  327.370  327.049  326.661  326.188  325.613  324.917  324.075  323.060
   8   329.784  329.733  329.631  329.479  329.278  329.029  328.732  328.396  328.044  327.726  327.499  327.304  327.088  326.817  326.472  326.038  325.498  324.835  324.026  323.044
   9   329.652  329.593  329.476  329.301  329.070  328.781  328.426  328.002  327.532  327.115  326.971  326.885  326.755  326.550  326.257  325.866  325.367  324.743  323.971  323.026
  10   329.523  329.455  329.320  329.118  328.854  328.526  328.107  327.561  326.865  326.114  326.274  326.399  326.388  326.257  326.019  325.676  325.222  324.641  323.911  323.009
  11   329.404  329.326  329.170  328.935  328.633  328.287  327.827  327.170  326.126  324.027  325.484  325.929  326.025  325.952  325.762  325.467  325.061  324.529  323.847  322.991
  12   329.306  329.219  329.038  328.757  328.386  328.083  327.654  327.052  326.265  325.422  325.545  325.678  325.708  325.639  325.482  325.234  324.883  324.407  323.779  322.974
  13   329.239  329.145  328.947  328.606  328.004  327.928  327.562  327.010  326.332  325.689  325.463  325.401  325.359  325.286  325.160  324.966  324.684  324.279  323.711  322.959
  14   329.207  329.119  328.938  328.656  328.285  327.985  327.566  326.988  326.241  325.406  325.084  324.966  324.907  324.847  324.765  324.643  324.458  324.154  323.650  322.945
  15   329.205  329.126  328.968  328.731  328.427  328.085  327.639  327.025  326.112  324.461  324.353  324.326  324.305  324.284  324.261  324.234  324.199  324.067  323.615  322.935
  16   329.224  329.154  329.015  328.809  328.539  328.208  327.789  327.253  326.568  325.768  325.395  325.192  325.050  324.927  324.801  324.651  324.451  324.139  323.634  322.929
  17   329.254  329.192  329.068  328.885  328.642  328.340  327.970  327.526  327.016  326.497  326.120  325.847  325.628  325.426  325.216  324.971  324.661  324.244  323.675  322.926
  18   329.287  329.231  329.120  328.954  328.736  328.465  328.142  327.770  327.365  326.963  326.615  326.320  326.056  325.800  325.527  325.213  324.829  324.343  323.719  322.925
  19   329.317  329.266  329.163  329.012  328.812  328.567  328.281  327.959  327.615  327.270  326.945  326.644  326.356  326.064  325.749  325.388  324.955  324.422  323.756  322.925
  20   329.340  329.291  329.195  329.053  328.867  328.640  328.377  328.085  327.774  327.459  327.149  326.847  326.546  326.233  325.892  325.502  325.038  324.475  323.782  322.925
  21   329.352  329.305  329.212  329.075  328.895  328.677  328.425  328.148  327.852  327.549  327.246  326.944  326.637  326.315  325.962  325.558  325.080  324.502  323.795  322.925
1
  HEAD IN LAYER   3 AT END OF TIME STEP   2 IN STRESS PERIOD    2
  ---------------------------------------------------------------------------

            1        2        3        4        5        6        7        8        9       10       11       12       13       14       15       16       17       18       19       20
 .......................................................................................................................................................................................
   1   326.951  326.943  326.929  326.907  326.879  326.844  326.804  326.758  326.707  326.651  326.592  326.529  326.464  326.397  326.330  326.265  326.205  326.152  326.111  326.088
   2   326.937  326.929  326.915  326.893  326.865  326.830  326.790  326.745  326.695  326.640  326.581  326.519  326.455  326.388  326.322  326.258  326.198  326.146  326.106  326.082
   3   326.909  326.902  326.887  326.865  326.837  326.803  326.764  326.720  326.671  326.617  326.560  326.500  326.437  326.372  326.307  326.245  326.186  326.134  326.095  326.071
   4   326.867  326.860  326.845  326.823  326.796  326.762  326.724  326.682  326.634  326.583  326.529  326.471  326.410  326.348  326.285  326.224  326.167  326.117  326.078  326.056
   5   326.812  326.804  326.789  326.767  326.740  326.708  326.671  326.631  326.587  326.539  326.487  326.433  326.375  326.316  326.257  326.198  326.144  326.095  326.058  326.036
   6   326.744  326.736  326.719  326.697  326.670  326.639  326.605  326.568  326.528  326.484  326.437  326.387  326.334  326.279  326.223  326.167  326.115  326.069  326.033  326.012
   7   326.664  326.654  326.636  326.612  326.584  326.556  326.526  326.494  326.459  326.421  326.379  326.334  326.286  326.235  326.184  326.132  326.083  326.039  326.005  325.984
   8   326.573  326.561  326.539  326.511  326.482  326.457  326.433  326.408  326.380  326.349  326.314  326.276  326.234  326.188  326.141  326.093  326.048  326.007  325.974  325.955
   9   326.474  326.458  326.428  326.392  326.360  326.339  326.326  326.313  326.295  326.272  326.246  326.215  326.179  326.139  326.097  326.053  326.011  325.973  325.942  325.924
  10   326.372  326.348  326.304  326.250  326.208  326.200  326.207  326.211  326.207  326.194  326.177  326.154  326.125  326.090  326.052  326.013  325.974  325.939  325.910  325.893
  11   326.274  326.239  326.170  326.079  326.006  326.031  326.077  326.110  326.123  326.120  326.113  326.097  326.073  326.044  326.010  325.974  325.938  325.905  325.879  325.863
  12   326.193  326.143  326.038  325.874  325.689  325.827  325.949  326.021  326.055  326.064  326.061  326.049  326.028  326.001  325.971  325.938  325.905  325.874  325.849  325.835
  13   326.142  326.083  325.947  325.671  325.033  325.624  325.859  325.964  326.010  326.025  326.023  326.010  325.991  325.965  325.936  325.905  325.874  325.846  325.823  325.809
  14   326.131  326.081  325.976  325.812  325.627  325.765  325.887  325.960  325.994  326.003  325.998  325.983  325.963  325.937  325.909  325.879  325.849  325.822  325.800  325.787
  15   326.150  326.114  326.045  325.955  325.882  325.908  325.954  325.988  326.002  325.999  325.987  325.969  325.945  325.918  325.889  325.859  325.830  325.803  325.782  325.768
  16   326.186  326.162  326.117  326.065  326.023  326.016  326.023  326.029  326.025  326.012  325.993  325.969  325.942  325.912  325.880  325.849  325.818  325.790  325.768  325.754
  17   326.227  326.210  326.180  326.145  326.114  326.095  326.083  326.071  326.055  326.033  326.007  325.978  325.947  325.913  325.878  325.844  325.811  325.782  325.758  325.744
  18   326.265  326.253  326.231  326.204  326.177  326.153  326.131  326.109  326.084  326.055  326.024  325.990  325.955  325.918  325.880  325.843  325.808  325.777  325.752  325.738
  19   326.296  326.287  326.269  326.246  326.220  326.193  326.166  326.138  326.108  326.075  326.039  326.002  325.963  325.923  325.883  325.844  325.807  325.775  325.749  325.733
  20   326.318  326.310  326.294  326.273  326.247  326.220  326.190  326.159  326.125  326.089  326.051  326.011  325.970  325.928  325.886  325.846  325.807  325.774  325.747  325.731
  21   326.329  326.321  326.306  326.286  326.261  326.233  326.202  326.169  326.134  326.096  326.057  326.016  325.974  325.931  325.888  325.847  325.808  325.773  325.746  325.730

 HEAD WILL BE SAVED ON UNIT 1016 AT END OF TIME STEP    2, STRESS PERIOD    2


  VOLUME BUDGET FOR ENTIRE MODEL AT END OF TIME STEP    2, STRESS PERIOD   2
  ---------------------------------------------------------------------------------------------------

     CUMULATIVE VOLUME      L**3       RATES FOR THIS TIME STEP      L**3/T          PACKAGE NAME    
     ------------------                 ------------------------                     ----------------

           IN:                                      IN:
           ---                                      ---
              STO-SS =     9165883.4773                STO-SS =        5498.1059     STORAGE                          
              STO-SY =    15405754.5831                STO-SY =       13263.7456     STORAGE                          
                 WEL =           0.0000                   WEL =           0.0000     WEL_0                            
                 DRN =           0.0000                   DRN =           0.0000     DRN_0                            
                 RIV =           0.0000                   RIV =           0.0000     RIV_0                            
                RCHA =   423239347.2641                  RCHA =      525000.0000     RCHA_0                           

            TOTAL IN =   447810985.3245              TOTAL IN =      543761.8515

          OUT:                                     OUT:
          ----                                     ----
              STO-SS =           0.0000                STO-SS =           0.0000     STORAGE                          
              STO-SY =           0.0000                STO-SY =           0.0000     STORAGE                          
                 WEL =   140979782.4214                   WEL =      175000.0000     WEL_0                            
                 DRN =   115848023.4520                   DRN =      137370.0123     DRN_0                            
                 RIV =   190985126.7499                   RIV =      231394.6870     RIV_0                            
                RCHA =           0.0000                  RCHA =           0.0000     RCHA_0                           

           TOTAL OUT =   447812932.6233             TOTAL OUT =      543764.6994

            IN - OUT =       -1947.2988              IN - OUT =          -2.8478

 PERCENT DISCREPANCY =          -0.00     PERCENT DISCREPANCY =          -0.00




         TIME SUMMARY AT END OF TIME STEP    2 IN STRESS PERIOD    2
                    SECONDS     MINUTES      HOURS       DAYS        YEARS
                    -----------------------------------------------------------
   TIME STEP LENGTH 4.17400E+07 6.95667E+05  11594.      483.10      1.3227    
 STRESS PERIOD TIME 6.95667E+07 1.15945E+06  19324.      805.17      2.2044    
         TOTAL TIME 6.96531E+07 1.16089E+06  19348.      806.17      2.2072    


end timestep


start timestep kper="2" kstp="3" mode="normal"


 DRN PACKAGE (DRN_0) FLOW RATES   PERIOD      2   STEP        3
 -----------------------------------------------
   NUMBER   CELLID                    RATE      
 -----------------------------------------------
     1      (1,15,10)            -39122.362     
     2      (1,15,11)            -19793.046     
     3      (1,15,12)            -16451.952     
     4      (1,15,13)            -14827.590     
     5      (1,15,14)            -13439.790     
     6      (1,15,15)            -11810.392     
     7      (1,15,16)            -9555.8247     
     8      (1,15,17)            -5355.0098     
     9      (1,15,18)             0.0000000     
     10     (1,15,19)             0.0000000     
     11     (1,15,20)             0.0000000     
 -----------------------------------------------



1
  HEAD IN LAYER   1 AT END OF TIME STEP   3 IN STRESS PERIOD    2
  ---------------------------------------------------------------------------

            1        2        3        4        5        6        7        8        9       10       11       12       13       14       15       16       17       18       19       20
 .......................................................................................................................................................................................
   1   333.226  333.178  333.083  332.940  332.751  332.516  332.237  331.911  331.538  331.112  330.627  330.071  329.427  328.677  327.795  326.752  325.512  324.032  322.259  320.127
   2   333.195  333.146  333.048  332.902  332.709  332.469  332.184  331.853  331.477  331.050  330.566  330.012  329.374  328.630  327.755  326.719  325.487  324.015  322.251  320.127
   3   333.135  333.083  332.980  332.826  332.623  332.373  332.076  331.736  331.352  330.922  330.439  329.893  329.265  328.534  327.674  326.654  325.437  323.981  322.233  320.126
   4   333.046  332.990  332.879  332.714  332.496  332.227  331.911  331.553  331.155  330.719  330.240  329.705  329.095  328.386  327.550  326.554  325.362  323.930  322.206  320.125
   5   332.932  332.871  332.749  332.566  332.326  332.030  331.684  331.297  330.876  330.430  329.956  329.440  328.858  328.182  327.380  326.418  325.259  323.861  322.170  320.123
   6   332.797  332.729  332.592  332.387  332.115  331.781  331.390  330.956  330.496  330.031  329.566  329.082  328.544  327.915  327.160  326.244  325.129  323.773  322.125  320.121
   7   332.647  332.570  332.415  332.181  331.869  331.481  331.024  330.515  329.987  329.485  329.040  328.611  328.142  327.581  326.889  326.031  324.971  323.667  322.070  320.118
   8   332.488  332.401  332.225  331.958  331.596  331.138  330.586  329.958  329.303  328.722  328.328  328.005  327.643  327.177  326.566  325.780  324.784  323.542  322.005  320.115
   9   332.330  332.232  332.034  331.730  331.313  330.770  330.091  329.277  328.378  327.591  327.358  327.245  327.051  326.709  326.195  325.491  324.570  323.399  321.932  320.111
  10   332.180  332.072  331.854  331.515  331.042  330.412  329.587  328.514  327.148  325.683  326.054  326.357  326.394  326.194  325.783  325.167  324.329  323.237  321.849  320.107
  11   332.048  331.932  331.696  331.329  330.813  330.116  329.174  327.853  325.775  321.588  324.564  325.504  325.749  325.658  325.337  324.808  324.059  323.058  321.757  320.103
  12   331.941  331.820  331.573  331.189  330.649  329.928  328.975  327.731  326.158  324.495  324.782  325.092  325.198  325.110  324.846  324.404  323.757  322.859  321.657  320.098
  13   331.863  331.741  331.490  331.099  330.554  329.834  328.901  327.732  326.377  325.126  324.714  324.628  324.586  324.481  324.273  323.931  323.412  322.646  321.555  320.093
  14   331.817  331.696  331.449  331.065  330.530  329.822  328.899  327.718  326.256  324.655  324.053  323.851  323.766  323.683  323.555  323.349  323.014  322.436  321.464  320.089
  15   331.799  331.683  331.445  331.078  330.566  329.886  328.989  327.784  326.029  322.891  322.698  322.665  322.648  322.634  322.618  322.596  322.554  322.294  321.417  320.086
  16   331.805  331.695  331.471  331.128  330.653  330.027  329.222  328.193  326.893  325.385  324.695  324.330  324.086  323.879  323.665  323.403  323.037  322.442  321.464  320.089
  17   331.827  331.724  331.517  331.201  330.769  330.212  329.519  328.684  327.730  326.764  326.073  325.581  325.192  324.837  324.462  324.018  323.442  322.650  321.551  320.093
  18   331.857  331.762  331.571  331.282  330.892  330.401  329.807  329.122  328.377  327.640  327.008  326.477  326.007  325.549  325.057  324.481  323.765  322.842  321.641  320.097
  19   331.887  331.798  331.621  331.355  331.002  330.562  330.043  329.459  328.835  328.211  327.627  327.088  326.574  326.050  325.479  324.815  324.006  322.994  321.715  320.100
  20   331.911  331.827  331.660  331.411  331.082  330.678  330.207  329.683  329.126  328.561  328.007  327.468  326.931  326.369  325.750  325.031  324.164  323.097  321.766  320.103
  21   331.924  331.843  331.681  331.440  331.124  330.738  330.290  329.794  329.268  328.728  328.188  327.650  327.103  326.524  325.882  325.137  324.243  323.148  321.792  320.104
1
  HEAD IN LAYER   2 AT END OF TIME STEP   3 IN STRESS PERIOD    2
  ---------------------------------------------------------------------------

            1        2        3        4        5        6        7        8        9       10       11       12       13       14       15       16       17       18       19       20
 .......................................................................................................................................................................................
   1   329.893  329.866  329.811  329.730  329.622  329.489  329.331  329.147  328.936  328.698  328.428  328.121  327.769  327.363  326.891  326.339  325.692  324.928  324.024  322.950
   2   329.871  329.843  329.787  329.704  329.594  329.459  329.298  329.112  328.900  328.661  328.392  328.087  327.738  327.335  326.867  326.320  325.677  324.917  324.017  322.947
   3   329.827  329.798  329.739  329.653  329.538  329.397  329.231  329.040  328.826  328.586  328.319  328.017  327.675  327.279  326.820  326.281  325.646  324.895  324.003  322.941
   4   329.762  329.731  329.668  329.576  329.454  329.304  329.129  328.930  328.710  328.469  328.204  327.910  327.577  327.194  326.747  326.221  325.599  324.861  323.982  322.933
   5   329.678  329.644  329.576  329.474  329.342  329.179  328.990  328.778  328.547  328.302  328.042  327.759  327.442  327.077  326.648  326.141  325.536  324.816  323.954  322.922
   6   329.577  329.539  329.463  329.350  329.202  329.021  328.810  328.577  328.329  328.076  327.823  327.558  327.265  326.925  326.522  326.039  325.458  324.759  323.919  322.910
   7   329.462  329.419  329.333  329.205  329.037  328.830  328.588  328.320  328.041  327.773  327.532  327.297  327.041  326.737  326.368  325.915  325.363  324.692  323.878  322.895
   8   329.338  329.289  329.191  329.044  328.850  328.610  328.324  328.000  327.661  327.357  327.145  326.966  326.767  326.513  326.186  325.771  325.253  324.614  323.832  322.879
   9   329.210  329.153  329.040  328.871  328.648  328.368  328.024  327.613  327.158  326.755  326.627  326.557  326.444  326.256  325.980  325.608  325.129  324.526  323.779  322.863
  10   329.085  329.019  328.889  328.694  328.438  328.120  327.714  327.182  326.500  325.764  325.943  326.085  326.090  325.975  325.753  325.427  324.990  324.429  323.723  322.846
  11   328.971  328.895  328.744  328.516  328.223  327.889  327.443  326.802  325.774  323.688  325.168  325.631  325.743  325.685  325.509  325.229  324.839  324.323  323.662  322.829
  12   328.877  328.792  328.617  328.344  327.983  327.693  327.281  326.698  325.932  325.109  325.252  325.402  325.447  325.391  325.246  325.010  324.672  324.210  323.598  322.813
  13   328.814  328.723  328.530  328.198  327.608  327.546  327.200  326.671  326.020  325.405  325.200  325.153  325.124  325.060  324.943  324.758  324.485  324.090  323.534  322.798
  14   328.785  328.700  328.525  328.252  327.894  327.611  327.213  326.663  325.952  325.159  324.858  324.752  324.701  324.649  324.572  324.455  324.275  323.973  323.478  322.786
  15   328.787  328.711  328.558  328.331  328.040  327.715  327.292  326.710  325.843  324.279  324.178  324.154  324.136  324.117  324.096  324.071  324.036  323.894  323.446  322.776
  16   328.808  328.741  328.608  328.411  328.154  327.840  327.444  326.935  326.286  325.529  325.177  324.985  324.851  324.735  324.614  324.469  324.271  323.962  323.463  322.770
  17   328.840  328.780  328.663  328.488  328.258  327.972  327.622  327.202  326.719  326.228  325.872  325.614  325.406  325.214  325.011  324.773  324.470  324.061  323.502  322.768
  18   328.874  328.821  328.715  328.558  328.352  328.096  327.790  327.439  327.056  326.677  326.347  326.068  325.817  325.571  325.309  325.004  324.630  324.155  323.544  322.767
  19   328.905  328.856  328.760  328.616  328.428  328.197  327.926  327.622  327.297  326.971  326.664  326.379  326.104  325.825  325.521  325.171  324.750  324.230  323.579  322.766
  20   328.928  328.882  328.792  328.658  328.482  328.268  328.020  327.744  327.451  327.153  326.860  326.573  326.286  325.986  325.657  325.280  324.829  324.280  323.604  322.767
  21   328.940  328.896  328.809  328.679  328.510  328.304  328.067  327.805  327.526  327.240  326.953  326.666  326.373  326.065  325.724  325.333  324.869  324.306  323.616  322.767
1
  HEAD IN LAYER   3 AT END OF TIME STEP   3 IN STRESS PERIOD    2
  ---------------------------------------------------------------------------

            1        2        3        4        5        6        7        8        9       10       11       12       13       14       15       16       17       18       19       20
 .......................................................................................................................................................................................
   1   326.572  326.565  326.552  326.531  326.505  326.473  326.435  326.392  326.344  326.292  326.237  326.178  326.116  326.053  325.990  325.928  325.871  325.821  325.782  325.759
   2   326.559  326.552  326.538  326.518  326.491  326.459  326.422  326.379  326.332  326.281  326.226  326.168  326.107  326.045  325.982  325.922  325.865  325.815  325.776  325.754
   3   326.531  326.524  326.510  326.490  326.464  326.432  326.396  326.354  326.309  326.259  326.206  326.149  326.090  326.029  325.968  325.908  325.853  325.804  325.766  325.744
   4   326.490  326.483  326.469  326.449  326.423  326.392  326.357  326.317  326.273  326.226  326.175  326.121  326.064  326.005  325.947  325.889  325.835  325.787  325.750  325.729
   5   326.436  326.428  326.414  326.394  326.368  326.338  326.305  326.268  326.227  326.182  326.135  326.084  326.030  325.975  325.919  325.864  325.812  325.766  325.730  325.709
   6   326.369  326.360  326.345  326.324  326.299  326.271  326.240  326.206  326.169  326.129  326.085  326.039  325.990  325.938  325.886  325.834  325.784  325.741  325.706  325.686
   7   326.289  326.280  326.263  326.240  326.215  326.189  326.162  326.133  326.101  326.066  326.029  325.987  325.943  325.896  325.848  325.800  325.753  325.712  325.679  325.660
   8   326.200  326.188  326.167  326.140  326.114  326.091  326.070  326.048  326.024  325.996  325.965  325.931  325.892  325.851  325.807  325.762  325.719  325.681  325.650  325.632
   9   326.102  326.086  326.057  326.023  325.993  325.975  325.965  325.955  325.940  325.921  325.899  325.871  325.839  325.803  325.764  325.724  325.684  325.648  325.619  325.602
  10   326.001  325.977  325.934  325.883  325.843  325.837  325.847  325.855  325.854  325.845  325.831  325.812  325.787  325.756  325.722  325.685  325.649  325.616  325.589  325.573
  11   325.905  325.869  325.802  325.713  325.642  325.670  325.718  325.755  325.772  325.773  325.770  325.757  325.737  325.711  325.681  325.648  325.614  325.584  325.559  325.544
  12   325.825  325.775  325.671  325.509  325.326  325.467  325.592  325.668  325.706  325.719  325.720  325.711  325.694  325.671  325.643  325.613  325.582  325.554  325.531  325.516
  13   325.775  325.716  325.581  325.307  324.671  325.266  325.504  325.613  325.662  325.681  325.683  325.675  325.659  325.637  325.611  325.582  325.554  325.527  325.505  325.492
  14   325.764  325.715  325.611  325.449  325.267  325.408  325.533  325.610  325.648  325.661  325.660  325.649  325.632  325.610  325.584  325.557  325.530  325.504  325.484  325.471
  15   325.785  325.750  325.682  325.594  325.523  325.552  325.602  325.639  325.657  325.658  325.651  325.636  325.616  325.593  325.566  325.539  325.512  325.487  325.466  325.454
  16   325.821  325.798  325.755  325.704  325.665  325.661  325.672  325.681  325.682  325.673  325.658  325.638  325.614  325.587  325.558  325.529  325.500  325.474  325.453  325.440
  17   325.863  325.847  325.819  325.785  325.757  325.741  325.732  325.724  325.712  325.694  325.672  325.647  325.619  325.588  325.557  325.525  325.494  325.467  325.444  325.431
  18   325.902  325.891  325.870  325.845  325.820  325.799  325.780  325.762  325.741  325.717  325.689  325.659  325.627  325.593  325.559  325.525  325.492  325.462  325.439  325.425
  19   325.934  325.925  325.908  325.887  325.864  325.840  325.816  325.792  325.765  325.736  325.704  325.671  325.636  325.599  325.562  325.526  325.491  325.460  325.435  325.421
  20   325.956  325.948  325.934  325.914  325.891  325.867  325.840  325.812  325.782  325.750  325.716  325.680  325.642  325.604  325.565  325.527  325.491  325.459  325.434  325.418
  21   325.967  325.960  325.946  325.928  325.905  325.880  325.852  325.823  325.791  325.757  325.722  325.685  325.646  325.607  325.567  325.528  325.491  325.459  325.433  325.417

 HEAD WILL BE SAVED ON UNIT 1016 AT END OF TIME STEP    3, STRESS PERIOD    2


  VOLUME BUDGET FOR ENTIRE MODEL AT END OF TIME STEP    3, STRESS PERIOD   2
  ---------------------------------------------------------------------------------------------------

     CUMULATIVE VOLUME      L**3       RATES FOR THIS TIME STEP      L**3/T          PACKAGE NAME    
     ------------------                 ------------------------                     ----------------

           IN:                                      IN:
           ---                                      ---
              STO-SS =    10295558.7405                STO-SS =        1558.9185     STORAGE                          
              STO-SY =    18465283.9488                STO-SY =        4222.0603     STORAGE                          
                 WEL =           0.0000                   WEL =           0.0000     WEL_0                            
                 DRN =           0.0000                   DRN =           0.0000     DRN_0                            
                 RIV =           0.0000                   RIV =           0.0000     RIV_0                            
                RCHA =   803682259.8018                  RCHA =      525000.0000     RCHA_0                           

            TOTAL IN =   832443102.4911              TOTAL IN =      530780.9788

          OUT:                                     OUT:
          ----                                     ----
              STO-SS =           0.0000                STO-SS =           0.0000     STORAGE                          
              STO-SY =           0.0000                STO-SY =           0.0000     STORAGE                          
                 WEL =   267794086.6006                   WEL =      175000.0000     WEL_0                            
                 DRN =   210310886.2488                   DRN =      130355.9649     DRN_0                            
                 RIV =   354341310.3265                   RIV =      225426.7159     RIV_0                            
                RCHA =           0.0000                  RCHA =           0.0000     RCHA_0                           

           TOTAL OUT =   832446283.1759             TOTAL OUT =      530782.6809

            IN - OUT =       -3180.6848              IN - OUT =          -1.7020

 PERCENT DISCREPANCY =          -0.00     PERCENT DISCREPANCY =          -0.00




         TIME SUMMARY AT END OF TIME STEP    3 IN STRESS PERIOD    2
                    SECONDS     MINUTES      HOURS       DAYS        YEARS
                    -----------------------------------------------------------
   TIME STEP LENGTH 6.26100E+07 1.04350E+06  17392.      724.65      1.9840    
 STRESS PERIOD TIME 1.32177E+08 2.20295E+06  36716.      1529.8      4.1884    
         TOTAL TIME 1.32263E+08 2.20439E+06  36740.      1530.8      4.1912    


end timestep


start timestep kper="2" kstp="4" mode="normal"


 DRN PACKAGE (DRN_0) FLOW RATES   PERIOD      2   STEP        4
 -----------------------------------------------
   NUMBER   CELLID                    RATE      
 -----------------------------------------------
     1      (1,15,10)            -38376.555     
     2      (1,15,11)            -19424.542     
     3      (1,15,12)            -16162.387     
     4      (1,15,13)            -14581.242     
     5      (1,15,14)            -13224.935     
     6      (1,15,15)            -11621.594     
     7      (1,15,16)            -9388.6034     
     8      (1,15,17)            -5173.1256     
     9      (1,15,18)             0.0000000     
     10     (1,15,19)             0.0000000     
     11     (1,15,20)             0.0000000     
 -----------------------------------------------



1
  HEAD IN LAYER   1 AT END OF TIME STEP   4 IN STRESS PERIOD    2
  ---------------------------------------------------------------------------

            1        2        3        4        5        6        7        8        9       10       11       12       13       14       15       16       17       18       19       20
 .......................................................................................................................................................................................
   1   333.033  332.986  332.893  332.753  332.567  332.337  332.063  331.743  331.377  330.959  330.483  329.936  329.304  328.565  327.697  326.669  325.445  323.985  322.233  320.126
   2   333.003  332.955  332.859  332.715  332.525  332.290  332.010  331.686  331.316  330.898  330.422  329.879  329.251  328.519  327.657  326.637  325.421  323.968  322.225  320.126
   3   332.943  332.892  332.791  332.640  332.441  332.195  331.904  331.570  331.192  330.770  330.297  329.760  329.143  328.424  327.577  326.572  325.372  323.935  322.207  320.125
   4   332.856  332.801  332.692  332.529  332.315  332.050  331.740  331.388  330.998  330.570  330.100  329.575  328.976  328.278  327.455  326.473  325.298  323.884  322.181  320.123
   5   332.744  332.683  332.563  332.383  332.146  331.855  331.516  331.135  330.721  330.283  329.818  329.312  328.741  328.076  327.287  326.339  325.197  323.816  322.146  320.122
   6   332.611  332.543  332.408  332.206  331.939  331.609  331.224  330.797  330.345  329.887  329.432  328.957  328.430  327.813  327.070  326.168  325.068  323.730  322.101  320.119
   7   332.462  332.386  332.233  332.003  331.695  331.312  330.861  330.359  329.839  329.345  328.910  328.491  328.032  327.483  326.803  325.958  324.913  323.625  322.047  320.117
   8   332.306  332.220  332.047  331.783  331.426  330.973  330.427  329.806  329.160  328.588  328.203  327.890  327.539  327.084  326.485  325.711  324.729  323.503  321.984  320.114
   9   332.150  332.054  331.858  331.559  331.146  330.609  329.937  329.131  328.241  327.463  327.240  327.138  326.954  326.622  326.120  325.427  324.519  323.362  321.911  320.110
  10   332.003  331.897  331.681  331.347  330.879  330.256  329.438  328.374  327.017  325.562  325.944  326.258  326.306  326.115  325.715  325.109  324.282  323.204  321.830  320.106
  11   331.874  331.760  331.527  331.165  330.655  329.965  329.032  327.720  325.652  321.473  324.464  325.416  325.671  325.589  325.277  324.757  324.019  323.028  321.740  320.102
  12   331.770  331.651  331.407  331.028  330.495  329.782  328.840  327.608  326.048  324.398  324.698  325.019  325.133  325.053  324.797  324.362  323.723  322.834  321.643  320.097
  13   331.695  331.574  331.327  330.942  330.404  329.694  328.773  327.619  326.281  325.048  324.649  324.573  324.538  324.439  324.236  323.900  323.386  322.626  321.543  320.092
  14   331.652  331.532  331.289  330.911  330.384  329.686  328.777  327.615  326.176  324.603  324.014  323.820  323.739  323.660  323.535  323.331  322.999  322.422  321.455  320.088
  15   331.636  331.521  331.287  330.926  330.423  329.753  328.872  327.687  325.964  322.884  322.694  322.662  322.646  322.632  322.616  322.594  322.552  322.284  321.409  320.086
  16   331.643  331.535  331.315  330.978  330.511  329.896  329.105  328.095  326.818  325.338  324.661  324.303  324.063  323.859  323.648  323.389  323.024  322.430  321.456  320.088
  17   331.666  331.565  331.362  331.052  330.628  330.081  329.401  328.582  327.645  326.697  326.019  325.536  325.154  324.803  324.433  323.993  323.421  322.633  321.541  320.092
  18   331.697  331.604  331.416  331.133  330.751  330.269  329.686  329.014  328.283  327.560  326.940  326.419  325.956  325.505  325.019  324.449  323.738  322.822  321.629  320.096
  19   331.728  331.641  331.467  331.207  330.860  330.429  329.920  329.347  328.735  328.123  327.551  327.021  326.515  325.999  325.434  324.777  323.975  322.971  321.702  320.100
  20   331.752  331.670  331.506  331.262  330.940  330.544  330.082  329.569  329.023  328.468  327.925  327.395  326.866  326.313  325.700  324.989  324.131  323.072  321.752  320.102
  21   331.765  331.686  331.527  331.292  330.982  330.603  330.165  329.679  329.163  328.633  328.103  327.575  327.036  326.465  325.830  325.093  324.208  323.123  321.778  320.103
1
  HEAD IN LAYER   2 AT END OF TIME STEP   4 IN STRESS PERIOD    2
  ---------------------------------------------------------------------------

            1        2        3        4        5        6        7        8        9       10       11       12       13       14       15       16       17       18       19       20
 .......................................................................................................................................................................................
   1   329.732  329.705  329.651  329.572  329.466  329.336  329.180  329.000  328.794  328.560  328.295  327.993  327.648  327.248  326.784  326.240  325.602  324.848  323.955  322.893
   2   329.710  329.682  329.628  329.546  329.439  329.305  329.148  328.965  328.758  328.524  328.260  327.960  327.617  327.221  326.760  326.221  325.587  324.837  323.948  322.890
   3   329.666  329.638  329.580  329.495  329.383  329.245  329.082  328.895  328.684  328.449  328.187  327.891  327.554  327.166  326.713  326.182  325.556  324.815  323.934  322.885
   4   329.602  329.571  329.510  329.419  329.299  329.153  328.981  328.786  328.570  328.333  328.073  327.785  327.458  327.081  326.642  326.124  325.510  324.782  323.913  322.876
   5   329.519  329.485  329.418  329.319  329.188  329.029  328.843  328.634  328.408  328.168  327.913  327.635  327.324  326.965  326.544  326.044  325.448  324.737  323.886  322.866
   6   329.419  329.382  329.307  329.196  329.050  328.872  328.665  328.435  328.192  327.944  327.695  327.436  327.149  326.816  326.420  325.944  325.371  324.681  323.852  322.853
   7   329.306  329.263  329.179  329.053  328.887  328.683  328.445  328.180  327.905  327.642  327.407  327.178  326.927  326.630  326.268  325.822  325.278  324.615  323.811  322.839
   8   329.183  329.135  329.038  328.893  328.702  328.465  328.182  327.862  327.528  327.229  327.023  326.850  326.656  326.409  326.089  325.680  325.170  324.538  323.765  322.824
   9   329.057  329.001  328.889  328.722  328.502  328.225  327.886  327.479  327.028  326.631  326.509  326.445  326.338  326.155  325.885  325.520  325.047  324.452  323.714  322.807
  10   328.933  328.868  328.739  328.547  328.294  327.980  327.578  327.051  326.374  325.644  325.829  325.977  325.988  325.878  325.662  325.342  324.912  324.357  323.658  322.791
  11   328.821  328.746  328.596  328.371  328.081  327.751  327.311  326.675  325.652  323.571  325.060  325.529  325.647  325.594  325.423  325.148  324.763  324.254  323.599  322.774
  12   328.729  328.645  328.471  328.201  327.844  327.559  327.152  326.576  325.817  325.001  325.152  325.308  325.357  325.306  325.165  324.934  324.600  324.143  323.537  322.759
  13   328.667  328.577  328.386  328.057  327.471  327.415  327.075  326.554  325.912  325.307  325.110  325.068  325.043  324.983  324.870  324.688  324.418  324.026  323.474  322.744
  14   328.640  328.556  328.382  328.113  327.759  327.482  327.092  326.551  325.853  325.075  324.781  324.680  324.631  324.581  324.507  324.392  324.213  323.912  323.419  322.732
  15   328.642  328.568  328.417  328.193  327.907  327.588  327.173  326.602  325.751  324.217  324.119  324.096  324.079  324.061  324.040  324.015  323.981  323.835  323.388  322.722
  16   328.665  328.599  328.468  328.274  328.022  327.714  327.325  326.826  326.190  325.448  325.103  324.915  324.784  324.670  324.550  324.407  324.211  323.902  323.405  322.717
  17   328.697  328.639  328.524  328.352  328.127  327.846  327.503  327.091  326.618  326.137  325.788  325.535  325.331  325.142  324.941  324.706  324.406  323.999  323.444  322.714
  18   328.732  328.680  328.576  328.423  328.220  327.969  327.670  327.326  326.951  326.579  326.256  325.982  325.736  325.494  325.235  324.934  324.563  324.091  323.485  322.713
  19   328.763  328.716  328.621  328.481  328.296  328.070  327.805  327.507  327.189  326.870  326.569  326.288  326.019  325.744  325.444  325.098  324.681  324.165  323.519  322.713
  20   328.787  328.742  328.653  328.522  328.350  328.141  327.898  327.628  327.341  327.049  326.761  326.480  326.198  325.903  325.578  325.205  324.759  324.215  323.544  322.713
  21   328.799  328.756  328.670  328.543  328.378  328.177  327.945  327.688  327.415  327.135  326.853  326.572  326.284  325.980  325.644  325.257  324.798  324.240  323.556  322.713
1
  HEAD IN LAYER   3 AT END OF TIME STEP   4 IN STRESS PERIOD    2
  ---------------------------------------------------------------------------

            1        2        3        4        5        6        7        8        9       10       11       12       13       14       15       16       17       18       19       20
 .......................................................................................................................................................................................
   1   326.443  326.436  326.423  326.403  326.377  326.346  326.309  326.267  326.221  326.170  326.116  326.058  325.998  325.936  325.874  325.814  325.758  325.708  325.670  325.648
   2   326.429  326.423  326.409  326.390  326.364  326.333  326.296  326.255  326.209  326.159  326.105  326.049  325.989  325.928  325.867  325.807  325.752  325.703  325.665  325.643
   3   326.402  326.395  326.382  326.362  326.337  326.306  326.270  326.230  326.186  326.137  326.085  326.030  325.972  325.912  325.853  325.794  325.740  325.692  325.654  325.633
   4   326.361  326.354  326.341  326.321  326.296  326.266  326.232  326.193  326.150  326.104  326.054  326.002  325.946  325.889  325.831  325.775  325.722  325.675  325.639  325.618
   5   326.307  326.300  326.286  326.266  326.241  326.213  326.180  326.144  326.104  326.061  326.015  325.965  325.913  325.859  325.804  325.750  325.699  325.654  325.619  325.598
   6   326.240  326.233  326.218  326.197  326.173  326.145  326.115  326.083  326.047  326.008  325.966  325.921  325.873  325.823  325.771  325.720  325.672  325.629  325.596  325.576
   7   326.162  326.152  326.136  326.114  326.089  326.064  326.038  326.010  325.979  325.946  325.909  325.870  325.827  325.781  325.734  325.687  325.641  325.601  325.569  325.550
   8   326.072  326.061  326.040  326.014  325.989  325.966  325.946  325.926  325.903  325.877  325.847  325.814  325.777  325.736  325.694  325.650  325.608  325.570  325.540  325.522
   9   325.975  325.959  325.931  325.897  325.868  325.851  325.842  325.833  325.820  325.802  325.781  325.755  325.724  325.689  325.652  325.612  325.573  325.538  325.510  325.493
  10   325.875  325.851  325.809  325.757  325.718  325.714  325.724  325.733  325.734  325.726  325.714  325.696  325.672  325.643  325.609  325.574  325.539  325.506  325.480  325.464
  11   325.779  325.744  325.676  325.589  325.518  325.547  325.597  325.634  325.653  325.655  325.653  325.642  325.623  325.599  325.569  325.537  325.505  325.475  325.450  325.435
  12   325.699  325.650  325.547  325.385  325.203  325.345  325.471  325.548  325.587  325.602  325.604  325.597  325.581  325.559  325.532  325.503  325.473  325.445  325.423  325.409
  13   325.650  325.591  325.457  325.184  324.548  325.144  325.383  325.493  325.544  325.564  325.568  325.561  325.546  325.525  325.500  325.473  325.445  325.419  325.398  325.385
  14   325.640  325.591  325.488  325.326  325.145  325.287  325.413  325.491  325.531  325.545  325.545  325.536  325.520  325.499  325.475  325.448  325.422  325.397  325.377  325.364
  15   325.661  325.626  325.559  325.471  325.402  325.431  325.482  325.521  325.540  325.543  325.537  325.524  325.505  325.482  325.457  325.430  325.404  325.380  325.360  325.347
  16   325.698  325.674  325.632  325.582  325.544  325.540  325.552  325.563  325.565  325.558  325.544  325.525  325.503  325.477  325.449  325.421  325.393  325.368  325.347  325.334
  17   325.740  325.724  325.696  325.663  325.635  325.620  325.613  325.606  325.595  325.579  325.559  325.535  325.508  325.478  325.448  325.417  325.387  325.360  325.338  325.325
  18   325.779  325.768  325.748  325.723  325.699  325.679  325.662  325.644  325.625  325.602  325.576  325.547  325.516  325.484  325.450  325.417  325.385  325.356  325.333  325.319
  19   325.811  325.802  325.786  325.765  325.743  325.720  325.698  325.674  325.649  325.621  325.591  325.559  325.525  325.489  325.453  325.418  325.384  325.354  325.329  325.315
  20   325.833  325.826  325.812  325.793  325.771  325.747  325.722  325.695  325.666  325.635  325.602  325.568  325.532  325.494  325.457  325.419  325.384  325.353  325.328  325.313
  21   325.844  325.837  325.824  325.806  325.784  325.760  325.733  325.705  325.675  325.643  325.608  325.573  325.535  325.497  325.458  325.420  325.385  325.352  325.327  325.312

 HEAD WILL BE SAVED ON UNIT 1016 AT END OF TIME STEP    4, STRESS PERIOD    2


  VOLUME BUDGET FOR ENTIRE MODEL AT END OF TIME STEP    4, STRESS PERIOD   2
  ---------------------------------------------------------------------------------------------------

     CUMULATIVE VOLUME      L**3       RATES FOR THIS TIME STEP      L**3/T          PACKAGE NAME    
     ------------------                 ------------------------                     ----------------

           IN:                                      IN:
           ---                                      ---
              STO-SS =    10682435.4144                STO-SS =         355.9189     STORAGE                          
              STO-SY =    19533865.1721                STO-SY =         983.0737     STORAGE                          
                 WEL =           0.0000                   WEL =           0.0000     WEL_0                            
                 DRN =           0.0000                   DRN =           0.0000     DRN_0                            
                 RIV =           0.0000                   RIV =           0.0000     RIV_0                            
                RCHA =  1374346628.6084                  RCHA =      525000.0000     RCHA_0                           

            TOTAL IN =  1404562929.1948              TOTAL IN =      526338.9927

          OUT:                                     OUT:
          ----                                     ----
              STO-SS =           0.0000                STO-SS =           0.0000     STORAGE                          
              STO-SY =           0.0000                STO-SY =           0.0000     STORAGE                          
                 WEL =   458015542.8695                   WEL =      175000.0000     WEL_0                            
                 DRN =   349393187.2649                   DRN =      127952.9826     DRN_0                            
                 RIV =   597158345.7188                   RIV =      223386.8988     RIV_0                            
                RCHA =           0.0000                  RCHA =           0.0000     RCHA_0                           

           TOTAL OUT =  1404567075.8531             TOTAL OUT =      526339.8813

            IN - OUT =       -4146.6583              IN - OUT =          -0.8887

 PERCENT DISCREPANCY =          -0.00     PERCENT DISCREPANCY =          -0.00




         TIME SUMMARY AT END OF TIME STEP    4 IN STRESS PERIOD    2
                    SECONDS     MINUTES      HOURS       DAYS        YEARS
                    -----------------------------------------------------------
   TIME STEP LENGTH 9.39151E+07 1.56525E+06  26088.      1087.0      2.9760    
 STRESS PERIOD TIME 2.26092E+08 3.76820E+06  62803.      2616.8      7.1644    
         TOTAL TIME 2.26178E+08 3.76964E+06  62827.      2617.8      7.1672    


end timestep


start timestep kper="2" kstp="5" mode="normal"


 DRN PACKAGE (DRN_0) FLOW RATES   PERIOD      2   STEP        5
 -----------------------------------------------
   NUMBER   CELLID                    RATE      
 -----------------------------------------------
     1      (1,15,10)            -38189.204     
     2      (1,15,11)            -19332.033     
     3      (1,15,12)            -16089.735     
     4      (1,15,13)            -14519.464     
     5      (1,15,14)            -13171.078     
     6      (1,15,15)            -11574.286     
     7      (1,15,16)            -9346.7137     
     8      (1,15,17)            -5127.5727     
     9      (1,15,18)             0.0000000     
     10     (1,15,19)             0.0000000     
     11     (1,15,20)             0.0000000     
 -----------------------------------------------



1
  HEAD IN LAYER   1 AT END OF TIME STEP   5 IN STRESS PERIOD    2
  ---------------------------------------------------------------------------

            1        2        3        4        5        6        7        8        9       10       11       12       13       14       15       16       17       18       19       20
 .......................................................................................................................................................................................
   1   332.984  332.938  332.844  332.705  332.521  332.292  332.018  331.701  331.336  330.921  330.447  329.902  329.273  328.537  327.672  326.648  325.429  323.973  322.227  320.126
   2   332.954  332.906  332.810  332.668  332.479  332.245  331.966  331.644  331.276  330.859  330.386  329.845  329.220  328.491  327.633  326.616  325.405  323.956  322.218  320.125
   3   332.895  332.844  332.743  332.593  332.395  332.150  331.860  331.527  331.152  330.732  330.261  329.727  329.113  328.397  327.553  326.551  325.356  323.923  322.201  320.124
   4   332.808  332.753  332.644  332.482  332.269  332.006  331.697  331.347  330.958  330.532  330.064  329.542  328.945  328.251  327.431  326.453  325.281  323.873  322.175  320.123
   5   332.696  332.636  332.516  332.337  332.101  331.811  331.473  331.094  330.682  330.246  329.783  329.280  328.711  328.050  327.264  326.320  325.181  323.805  322.140  320.121
   6   332.563  332.496  332.362  332.160  331.894  331.565  331.182  330.756  330.306  329.851  329.398  328.926  328.401  327.787  327.048  326.149  325.053  323.719  322.095  320.119
   7   332.416  332.340  332.187  331.958  331.651  331.270  330.820  330.320  329.801  329.310  328.877  328.461  328.004  327.458  326.781  325.940  324.898  323.615  322.041  320.116
   8   332.260  332.174  332.001  331.739  331.383  330.931  330.387  329.768  329.123  328.554  328.172  327.861  327.513  327.061  326.464  325.693  324.715  323.493  321.978  320.113
   9   332.105  332.009  331.814  331.515  331.104  330.568  329.898  329.094  328.206  327.430  327.210  327.110  326.929  326.600  326.101  325.411  324.506  323.353  321.906  320.110
  10   331.959  331.853  331.638  331.304  330.838  330.216  329.401  328.339  326.984  325.531  325.916  326.233  326.283  326.095  325.697  325.095  324.271  323.195  321.825  320.106
  11   331.831  331.717  331.485  331.123  330.615  329.927  328.996  327.687  325.621  321.445  324.439  325.394  325.651  325.572  325.262  324.744  324.008  323.021  321.736  320.102
  12   331.727  331.608  331.365  330.987  330.456  329.745  328.806  327.577  326.020  324.374  324.677  325.000  325.117  325.039  324.785  324.352  323.714  322.828  321.639  320.097
  13   331.653  331.532  331.286  330.903  330.366  329.659  328.741  327.590  326.257  325.029  324.633  324.559  324.526  324.429  324.227  323.892  323.380  322.621  321.540  320.092
  14   331.610  331.491  331.248  330.872  330.347  329.652  328.747  327.589  326.156  324.590  324.004  323.812  323.732  323.654  323.529  323.327  322.995  322.418  321.452  320.088
  15   331.595  331.480  331.248  330.888  330.387  329.720  328.842  327.663  325.947  322.882  322.693  322.661  322.645  322.632  322.616  322.593  322.551  322.282  321.407  320.086
  16   331.602  331.495  331.276  330.940  330.475  329.863  329.076  328.070  326.799  325.326  324.653  324.296  324.058  323.855  323.643  323.385  323.020  322.427  321.454  320.088
  17   331.626  331.526  331.323  331.014  330.592  330.048  329.371  328.556  327.623  326.680  326.005  325.525  325.144  324.795  324.426  323.986  323.415  322.629  321.539  320.092
  18   331.657  331.564  331.378  331.096  330.716  330.235  329.656  328.987  328.260  327.540  326.923  326.404  325.943  325.494  325.009  324.440  323.732  322.817  321.626  320.096
  19   331.688  331.601  331.429  331.169  330.824  330.395  329.889  329.319  328.710  328.102  327.531  327.004  326.500  325.986  325.423  324.767  323.967  322.965  321.699  320.100
  20   331.712  331.630  331.468  331.225  330.904  330.510  330.051  329.540  328.997  328.445  327.904  327.377  326.850  326.299  325.688  324.979  324.122  323.066  321.749  320.102
  21   331.725  331.646  331.489  331.254  330.946  330.569  330.133  329.650  329.136  328.609  328.082  327.556  327.019  326.450  325.818  325.082  324.199  323.117  321.774  320.103
1
  HEAD IN LAYER   2 AT END OF TIME STEP   5 IN STRESS PERIOD    2
  ---------------------------------------------------------------------------

            1        2        3        4        5        6        7        8        9       10       11       12       13       14       15       16       17       18       19       20
 .......................................................................................................................................................................................
   1   329.691  329.664  329.611  329.532  329.427  329.297  329.142  328.963  328.758  328.525  328.262  327.961  327.617  327.219  326.757  326.216  325.579  324.828  323.938  322.879
   2   329.669  329.642  329.587  329.506  329.399  329.267  329.110  328.928  328.722  328.489  328.226  327.928  327.587  327.192  326.734  326.196  325.564  324.817  323.931  322.876
   3   329.626  329.597  329.540  329.455  329.344  329.206  329.044  328.858  328.648  328.415  328.154  327.859  327.524  327.137  326.687  326.158  325.534  324.795  323.917  322.870
   4   329.562  329.531  329.470  329.380  329.260  329.114  328.943  328.749  328.534  328.299  328.040  327.753  327.428  327.053  326.615  326.099  325.488  324.762  323.896  322.862
   5   329.479  329.445  329.379  329.280  329.150  328.991  328.805  328.598  328.373  328.134  327.880  327.604  327.295  326.938  326.518  326.020  325.426  324.717  323.869  322.852
   6   329.379  329.342  329.267  329.157  329.012  328.834  328.628  328.399  328.157  327.910  327.663  327.405  327.120  326.788  326.394  325.920  325.349  324.662  323.835  322.839
   7   329.266  329.224  329.140  329.014  328.849  328.646  328.408  328.145  327.871  327.610  327.375  327.148  326.899  326.603  326.242  325.799  325.256  324.596  323.795  322.825
   8   329.144  329.096  328.999  328.855  328.664  328.428  328.147  327.828  327.495  327.197  326.992  326.821  326.628  326.383  326.064  325.658  325.149  324.520  323.749  322.810
   9   329.018  328.962  328.851  328.685  328.465  328.189  327.851  327.445  326.995  326.600  326.479  326.417  326.311  326.130  325.861  325.498  325.027  324.434  323.698  322.793
  10   328.895  328.830  328.701  328.509  328.257  327.945  327.544  327.018  326.343  325.614  325.800  325.950  325.963  325.854  325.639  325.321  324.892  324.339  323.642  322.777
  11   328.783  328.709  328.559  328.335  328.046  327.717  327.278  326.643  325.622  323.542  325.033  325.504  325.623  325.571  325.402  325.128  324.744  324.236  323.583  322.761
  12   328.691  328.607  328.434  328.165  327.809  327.525  327.120  326.545  325.788  324.974  325.127  325.285  325.335  325.285  325.145  324.915  324.582  324.126  323.521  322.745
  13   328.630  328.540  328.350  328.022  327.436  327.382  327.044  326.525  325.885  325.282  325.087  325.047  325.023  324.964  324.851  324.670  324.401  324.009  323.459  322.730
  14   328.603  328.519  328.347  328.078  327.726  327.450  327.062  326.523  325.828  325.054  324.762  324.661  324.614  324.564  324.490  324.376  324.197  323.897  323.405  322.718
  15   328.606  328.532  328.382  328.159  327.874  327.556  327.144  326.575  325.728  324.202  324.104  324.081  324.064  324.046  324.026  324.001  323.967  323.820  323.374  322.709
  16   328.629  328.563  328.433  328.240  327.989  327.682  327.296  326.799  326.166  325.428  325.085  324.898  324.767  324.653  324.534  324.391  324.196  323.887  323.391  322.703
  17   328.661  328.604  328.489  328.318  328.094  327.815  327.473  327.063  326.593  326.114  325.767  325.516  325.312  325.124  324.924  324.690  324.390  323.984  323.429  322.701
  18   328.696  328.645  328.542  328.389  328.187  327.937  327.640  327.298  326.925  326.555  326.234  325.961  325.715  325.475  325.216  324.916  324.546  324.075  323.470  322.700
  19   328.728  328.680  328.586  328.447  328.263  328.038  327.774  327.478  327.162  326.844  326.545  326.266  325.997  325.723  325.425  325.080  324.664  324.148  323.504  322.700
  20   328.751  328.707  328.619  328.488  328.317  328.109  327.867  327.599  327.314  327.023  326.737  326.456  326.176  325.882  325.558  325.186  324.741  324.198  323.528  322.700
  21   328.764  328.721  328.635  328.509  328.345  328.145  327.914  327.659  327.387  327.109  326.828  326.548  326.262  325.959  325.624  325.238  324.780  324.223  323.541  322.700
1
  HEAD IN LAYER   3 AT END OF TIME STEP   5 IN STRESS PERIOD    2
  ---------------------------------------------------------------------------

            1        2        3        4        5        6        7        8        9       10       11       12       13       14       15       16       17       18       19       20
 .......................................................................................................................................................................................
   1   326.411  326.404  326.391  326.371  326.345  326.314  326.277  326.236  326.190  326.140  326.085  326.028  325.968  325.907  325.845  325.785  325.729  325.680  325.642  325.620
   2   326.397  326.390  326.377  326.357  326.332  326.301  326.265  326.224  326.178  326.128  326.075  326.019  325.959  325.899  325.838  325.779  325.723  325.675  325.637  325.615
   3   326.370  326.363  326.350  326.330  326.305  326.274  326.239  326.199  326.155  326.106  326.055  326.000  325.942  325.883  325.824  325.766  325.711  325.663  325.626  325.605
   4   326.329  326.322  326.309  326.289  326.264  326.234  326.200  326.162  326.120  326.074  326.024  325.972  325.917  325.860  325.803  325.746  325.694  325.647  325.611  325.590
   5   326.275  326.268  326.254  326.234  326.210  326.181  326.149  326.113  326.073  326.030  325.984  325.935  325.883  325.830  325.775  325.722  325.671  325.626  325.591  325.571
   6   326.208  326.200  326.186  326.165  326.141  326.114  326.084  326.052  326.016  325.978  325.936  325.891  325.843  325.794  325.743  325.692  325.644  325.601  325.568  325.548
   7   326.129  326.120  326.104  326.082  326.057  326.032  326.006  325.979  325.949  325.916  325.880  325.840  325.798  325.752  325.705  325.658  325.613  325.573  325.541  325.522
   8   326.040  326.029  326.008  325.983  325.957  325.935  325.915  325.895  325.873  325.847  325.817  325.784  325.747  325.708  325.665  325.622  325.580  325.543  325.512  325.495
   9   325.943  325.927  325.899  325.865  325.836  325.820  325.811  325.802  325.790  325.772  325.751  325.725  325.695  325.661  325.623  325.584  325.546  325.511  325.483  325.466
  10   325.843  325.820  325.777  325.726  325.687  325.683  325.694  325.703  325.704  325.697  325.685  325.667  325.643  325.614  325.581  325.546  325.511  325.479  325.452  325.437
  11   325.747  325.712  325.645  325.557  325.487  325.516  325.566  325.604  325.623  325.626  325.624  325.613  325.595  325.570  325.541  325.509  325.477  325.447  325.423  325.408
  12   325.668  325.618  325.515  325.354  325.172  325.314  325.440  325.518  325.557  325.572  325.575  325.568  325.552  325.531  325.504  325.475  325.446  325.418  325.396  325.382
  13   325.618  325.560  325.426  325.153  324.518  325.114  325.353  325.463  325.515  325.535  325.539  325.532  325.518  325.497  325.473  325.446  325.418  325.392  325.371  325.358
  14   325.609  325.560  325.457  325.295  325.114  325.256  325.383  325.461  325.501  325.516  325.517  325.508  325.492  325.471  325.447  325.421  325.395  325.370  325.350  325.337
  15   325.630  325.595  325.528  325.440  325.371  325.401  325.452  325.491  325.511  325.514  325.508  325.495  325.477  325.455  325.430  325.403  325.377  325.353  325.333  325.320
  16   325.667  325.643  325.601  325.551  325.513  325.510  325.522  325.533  325.536  325.529  325.515  325.497  325.475  325.449  325.422  325.394  325.366  325.341  325.320  325.308
  17   325.709  325.693  325.665  325.633  325.605  325.590  325.583  325.577  325.566  325.550  325.530  325.506  325.480  325.451  325.421  325.390  325.360  325.333  325.312  325.299
  18   325.748  325.737  325.717  325.692  325.668  325.649  325.632  325.615  325.595  325.573  325.547  325.519  325.488  325.456  325.423  325.390  325.358  325.329  325.306  325.292
  19   325.780  325.771  325.755  325.735  325.712  325.690  325.668  325.645  325.620  325.592  325.563  325.531  325.497  325.462  325.426  325.391  325.357  325.327  325.303  325.289
  20   325.802  325.795  325.781  325.762  325.740  325.717  325.692  325.665  325.637  325.606  325.574  325.540  325.504  325.467  325.429  325.392  325.357  325.326  325.301  325.286
  21   325.814  325.807  325.794  325.775  325.754  325.730  325.704  325.676  325.646  325.614  325.580  325.544  325.507  325.469  325.431  325.393  325.358  325.326  325.300  325.285

 HEAD WILL BE SAVED ON UNIT 1016 AT END OF TIME STEP    5, STRESS PERIOD    2


  VOLUME BUDGET FOR ENTIRE MODEL AT END OF TIME STEP    5, STRESS PERIOD   2
  ---------------------------------------------------------------------------------------------------

     CUMULATIVE VOLUME      L**3       RATES FOR THIS TIME STEP      L**3/T          PACKAGE NAME    
     ------------------                 ------------------------                     ----------------

           IN:                                      IN:
           ---                                      ---
              STO-SS =    10779659.3289                STO-SS =          59.6294     STORAGE                          
              STO-SY =    19803259.0130                STO-SY =         165.2247     STORAGE                          
                 WEL =           0.0000                   WEL =           0.0000     WEL_0                            
                 DRN =           0.0000                   DRN =           0.0000     DRN_0                            
                 RIV =           0.0000                   RIV =           0.0000     RIV_0                            
                RCHA =  2230343181.8182                  RCHA =      525000.0000     RCHA_0                           

            TOTAL IN =  2260926100.1601              TOTAL IN =      525224.8541

          OUT:                                     OUT:
          ----                                     ----
              STO-SS =           0.0000                STO-SS =           0.0000     STORAGE                          
              STO-SY =           0.0000                STO-SY =           0.0000     STORAGE                          
                 WEL =   743347727.2727                   WEL =      175000.0000     WEL_0                            
                 DRN =   557033636.7550                   DRN =      127350.0875     DRN_0                            
                 RIV =   960548714.3211                   RIV =      222874.6632     RIV_0                            
                RCHA =           0.0000                  RCHA =           0.0000     RCHA_0                           

           TOTAL OUT =  2260930078.3488             TOTAL OUT =      525224.7508

            IN - OUT =       -3978.1887              IN - OUT =           0.1033

 PERCENT DISCREPANCY =          -0.00     PERCENT DISCREPANCY =           0.00




         TIME SUMMARY AT END OF TIME STEP    5 IN STRESS PERIOD    2
                    SECONDS     MINUTES      HOURS       DAYS        YEARS
                    -----------------------------------------------------------
   TIME STEP LENGTH 1.40873E+08 2.34788E+06  39131.      1630.5      4.4640    
 STRESS PERIOD TIME 3.66964E+08 6.11607E+06 1.01935E+05  4247.3      11.628    
         TOTAL TIME 3.67051E+08 6.11751E+06 1.01959E+05  4248.3      11.631    


end timestep


start timestep kper="2" kstp="6" mode="normal"


 DRN PACKAGE (DRN_0) FLOW RATES   PERIOD      2   STEP        6
 -----------------------------------------------
   NUMBER   CELLID                    RATE      
 -----------------------------------------------
     1      (1,15,10)            -38155.602     
     2      (1,15,11)            -19315.429     
     3      (1,15,12)            -16076.687     
     4      (1,15,13)            -14508.361     
     5      (1,15,14)            -13161.393     
     6      (1,15,15)            -11565.772     
     7      (1,15,16)            -9339.1662     
     8      (1,15,17)            -5119.3592     
     9      (1,15,18)             0.0000000     
     10     (1,15,19)             0.0000000     
     11     (1,15,20)             0.0000000     
 -----------------------------------------------



1
  HEAD IN LAYER   1 AT END OF TIME STEP   6 IN STRESS PERIOD    2
  ---------------------------------------------------------------------------

            1        2        3        4        5        6        7        8        9       10       11       12       13       14       15       16       17       18       19       20
 .......................................................................................................................................................................................
   1   332.976  332.929  332.836  332.697  332.512  332.283  332.010  331.693  331.329  330.914  330.440  329.896  329.267  328.532  327.668  326.644  325.426  323.970  322.226  320.126
   2   332.945  332.897  332.802  332.659  332.470  332.236  331.958  331.636  331.269  330.852  330.379  329.839  329.215  328.486  327.628  326.612  325.402  323.954  322.217  320.125
   3   332.886  332.835  332.735  332.585  332.386  332.142  331.852  331.520  331.145  330.725  330.254  329.721  329.107  328.392  327.549  326.548  325.353  323.921  322.200  320.124
   4   332.799  332.744  332.636  332.474  332.260  331.998  331.689  331.339  330.951  330.525  330.058  329.536  328.940  328.246  327.427  326.450  325.278  323.871  322.174  320.123
   5   332.687  332.627  332.507  332.329  332.093  331.803  331.465  331.086  330.675  330.239  329.777  329.274  328.706  328.045  327.259  326.316  325.178  323.803  322.138  320.121
   6   332.555  332.488  332.353  332.152  331.886  331.558  331.174  330.749  330.299  329.844  329.392  328.920  328.396  327.782  327.044  326.145  325.050  323.717  322.094  320.119
   7   332.407  332.331  332.179  331.950  331.643  331.262  330.813  330.313  329.795  329.304  328.871  328.455  327.999  327.453  326.777  325.937  324.895  323.613  322.040  320.116
   8   332.252  332.166  331.993  331.731  331.375  330.924  330.380  329.761  329.117  328.548  328.166  327.856  327.508  327.056  326.461  325.690  324.713  323.491  321.977  320.113
   9   332.097  332.001  331.806  331.507  331.096  330.561  329.891  329.088  328.200  327.424  327.205  327.105  326.925  326.597  326.097  325.408  324.504  323.351  321.905  320.110
  10   331.951  331.845  331.630  331.296  330.831  330.209  329.394  328.332  326.978  325.525  325.911  326.229  326.279  326.092  325.694  325.092  324.269  323.194  321.824  320.106
  11   331.823  331.709  331.477  331.116  330.608  329.920  328.990  327.681  325.616  321.439  324.435  325.390  325.648  325.569  325.259  324.742  324.007  323.019  321.735  320.101
  12   331.719  331.601  331.358  330.980  330.449  329.739  328.800  327.571  326.015  324.369  324.673  324.997  325.114  325.036  324.782  324.350  323.713  322.827  321.639  320.097
  13   331.646  331.525  331.279  330.895  330.359  329.653  328.735  327.585  326.253  325.025  324.630  324.557  324.524  324.427  324.226  323.890  323.379  322.621  321.540  320.092
  14   331.602  331.484  331.241  330.865  330.341  329.646  328.741  327.584  326.153  324.588  324.002  323.810  323.731  323.653  323.528  323.326  322.994  322.418  321.452  320.088
  15   331.587  331.473  331.241  330.881  330.380  329.714  328.837  327.658  325.944  322.882  322.693  322.661  322.645  322.632  322.616  322.593  322.551  322.281  321.407  320.086
  16   331.595  331.488  331.269  330.933  330.469  329.857  329.070  328.066  326.796  325.324  324.651  324.295  324.057  323.854  323.643  323.384  323.020  322.426  321.454  320.088
  17   331.618  331.518  331.316  331.008  330.586  330.042  329.366  328.551  327.619  326.677  326.003  325.523  325.142  324.794  324.424  323.985  323.415  322.628  321.538  320.092
  18   331.649  331.557  331.371  331.089  330.709  330.229  329.651  328.982  328.255  327.537  326.920  326.402  325.941  325.492  325.007  324.439  323.731  322.816  321.626  320.096
  19   331.680  331.594  331.422  331.163  330.818  330.389  329.884  329.314  328.706  328.098  327.528  327.001  326.497  325.983  325.421  324.765  323.966  322.964  321.698  320.100
  20   331.705  331.623  331.461  331.218  330.898  330.504  330.045  329.535  328.992  328.441  327.901  327.374  326.847  326.296  325.686  324.977  324.121  323.065  321.748  320.102
  21   331.718  331.639  331.482  331.248  330.940  330.563  330.128  329.645  329.131  328.605  328.078  327.552  327.016  326.448  325.815  325.080  324.198  323.116  321.774  320.103
1
  HEAD IN LAYER   2 AT END OF TIME STEP   6 IN STRESS PERIOD    2
  ---------------------------------------------------------------------------

            1        2        3        4        5        6        7        8        9       10       11       12       13       14       15       16       17       18       19       20
 .......................................................................................................................................................................................
   1   329.684  329.657  329.604  329.525  329.420  329.290  329.135  328.956  328.751  328.519  328.256  327.956  327.612  327.214  326.752  326.211  325.575  324.824  323.935  322.876
   2   329.662  329.634  329.580  329.499  329.392  329.260  329.103  328.922  328.715  328.483  328.220  327.922  327.581  327.187  326.729  326.192  325.560  324.813  323.928  322.873
   3   329.618  329.590  329.533  329.448  329.337  329.199  329.037  328.851  328.642  328.408  328.148  327.854  327.519  327.132  326.682  326.153  325.530  324.791  323.914  322.868
   4   329.555  329.524  329.463  329.372  329.253  329.107  328.936  328.743  328.528  328.292  328.034  327.747  327.423  327.048  326.610  326.095  325.484  324.758  323.893  322.860
   5   329.472  329.438  329.371  329.272  329.143  328.984  328.799  328.592  328.367  328.128  327.874  327.598  327.289  326.932  326.513  326.016  325.422  324.714  323.866  322.849
   6   329.372  329.335  329.260  329.150  329.005  328.827  328.621  328.393  328.151  327.904  327.657  327.400  327.114  326.783  326.389  325.916  325.345  324.658  323.832  322.837
   7   329.259  329.217  329.133  329.007  328.842  328.639  328.402  328.139  327.865  327.604  327.369  327.142  326.894  326.599  326.238  325.795  325.252  324.592  323.792  322.823
   8   329.137  329.089  328.992  328.848  328.658  328.422  328.140  327.822  327.489  327.192  326.986  326.815  326.623  326.378  326.060  325.653  325.145  324.516  323.746  322.807
   9   329.011  328.955  328.844  328.678  328.458  328.183  327.844  327.439  326.990  326.594  326.474  326.411  326.306  326.125  325.857  325.494  325.023  324.430  323.695  322.791
  10   328.888  328.824  328.695  328.503  328.251  327.938  327.537  327.012  326.337  325.608  325.795  325.945  325.958  325.850  325.635  325.317  324.888  324.336  323.639  322.774
  11   328.776  328.702  328.552  328.328  328.039  327.711  327.272  326.637  325.616  323.537  325.028  325.499  325.619  325.567  325.398  325.124  324.741  324.233  323.580  322.758
  12   328.685  328.601  328.428  328.158  327.803  327.519  327.114  326.540  325.783  324.969  325.122  325.280  325.331  325.281  325.142  324.911  324.578  324.123  323.518  322.742
  13   328.623  328.534  328.343  328.015  327.430  327.376  327.038  326.519  325.880  325.278  325.083  325.043  325.019  324.961  324.848  324.667  324.398  324.007  323.457  322.728
  14   328.597  328.513  328.340  328.072  327.719  327.444  327.056  326.518  325.824  325.050  324.758  324.658  324.611  324.561  324.487  324.373  324.194  323.894  323.402  322.716
  15   328.600  328.525  328.376  328.153  327.868  327.550  327.138  326.570  325.724  324.199  324.102  324.079  324.062  324.044  324.023  323.999  323.965  323.818  323.371  322.706
  16   328.622  328.557  328.427  328.234  327.983  327.677  327.290  326.794  326.162  325.424  325.081  324.895  324.764  324.651  324.531  324.388  324.193  323.884  323.388  322.701
  17   328.655  328.597  328.482  328.312  328.088  327.809  327.468  327.058  326.588  326.110  325.763  325.512  325.309  325.120  324.921  324.687  324.387  323.981  323.426  322.698
  18   328.690  328.638  328.535  328.382  328.181  327.932  327.634  327.293  326.920  326.550  326.230  325.957  325.712  325.471  325.213  324.913  324.543  324.073  323.467  322.697
  19   328.721  328.674  328.580  328.441  328.257  328.032  327.769  327.473  327.157  326.840  326.541  326.262  325.994  325.720  325.421  325.076  324.660  324.146  323.502  322.697
  20   328.745  328.700  328.612  328.482  328.311  328.103  327.861  327.594  327.309  327.018  326.732  326.452  326.172  325.878  325.555  325.182  324.738  324.195  323.526  322.697
  21   328.757  328.714  328.629  328.503  328.339  328.139  327.908  327.654  327.382  327.104  326.824  326.544  326.258  325.955  325.620  325.235  324.776  324.220  323.538  322.697
1
  HEAD IN LAYER   3 AT END OF TIME STEP   6 IN STRESS PERIOD    2
  ---------------------------------------------------------------------------

            1        2        3        4        5        6        7        8        9       10       11       12       13       14       15       16       17       18       19       20
 .......................................................................................................................................................................................
   1   326.405  326.398  326.385  326.365  326.340  326.308  326.272  326.230  326.184  326.134  326.080  326.023  325.963  325.902  325.840  325.780  325.724  325.675  325.637  325.615
   2   326.391  326.384  326.371  326.352  326.326  326.295  326.259  326.218  326.172  326.123  326.070  326.013  325.954  325.894  325.833  325.773  325.718  325.669  325.632  325.610
   3   326.364  326.357  326.344  326.324  326.299  326.268  326.233  326.193  326.149  326.101  326.049  325.994  325.937  325.878  325.818  325.760  325.706  325.658  325.621  325.600
   4   326.323  326.316  326.303  326.283  326.258  326.229  326.194  326.156  326.114  326.068  326.019  325.966  325.911  325.855  325.797  325.741  325.689  325.642  325.606  325.585
   5   326.269  326.262  326.248  326.228  326.204  326.175  326.143  326.107  326.068  326.025  325.979  325.930  325.878  325.825  325.770  325.716  325.666  325.621  325.586  325.566
   6   326.202  326.195  326.180  326.160  326.135  326.108  326.078  326.046  326.011  325.972  325.930  325.886  325.838  325.788  325.737  325.687  325.639  325.596  325.563  325.543
   7   326.124  326.115  326.098  326.076  326.052  326.026  326.001  325.973  325.943  325.910  325.874  325.835  325.792  325.747  325.700  325.653  325.608  325.568  325.536  325.517
   8   326.035  326.023  326.002  325.977  325.951  325.929  325.910  325.890  325.867  325.841  325.812  325.779  325.742  325.702  325.660  325.617  325.575  325.538  325.507  325.490
   9   325.938  325.922  325.893  325.860  325.831  325.814  325.805  325.797  325.784  325.767  325.746  325.720  325.690  325.656  325.618  325.579  325.541  325.506  325.478  325.461
  10   325.837  325.814  325.771  325.720  325.681  325.677  325.688  325.697  325.699  325.691  325.679  325.662  325.638  325.609  325.576  325.541  325.506  325.474  325.447  325.432
  11   325.742  325.707  325.639  325.552  325.481  325.510  325.561  325.599  325.617  325.620  325.618  325.608  325.590  325.565  325.536  325.504  325.472  325.442  325.418  325.403
  12   325.662  325.613  325.510  325.348  325.167  325.308  325.435  325.512  325.552  325.567  325.570  325.563  325.547  325.526  325.499  325.470  325.441  325.413  325.391  325.377
  13   325.613  325.555  325.420  325.147  324.512  325.108  325.347  325.458  325.510  325.530  325.534  325.527  325.513  325.492  325.468  325.441  325.413  325.387  325.366  325.353
  14   325.603  325.554  325.451  325.290  325.109  325.251  325.378  325.456  325.496  325.511  325.511  325.503  325.487  325.466  325.442  325.416  325.390  325.365  325.345  325.332
  15   325.624  325.589  325.522  325.435  325.365  325.395  325.447  325.486  325.506  325.509  325.503  325.490  325.472  325.450  325.425  325.398  325.372  325.348  325.328  325.316
  16   325.661  325.638  325.596  325.545  325.508  325.504  325.517  325.528  325.530  325.523  325.510  325.492  325.470  325.444  325.417  325.389  325.361  325.336  325.315  325.303
  17   325.703  325.688  325.660  325.627  325.599  325.585  325.578  325.571  325.561  325.545  325.525  325.501  325.475  325.446  325.416  325.385  325.355  325.329  325.307  325.294
  18   325.742  325.731  325.711  325.687  325.663  325.643  325.626  325.609  325.590  325.568  325.542  325.514  325.483  325.451  325.418  325.385  325.353  325.324  325.301  325.288
  19   325.774  325.766  325.750  325.729  325.707  325.685  325.662  325.639  325.615  325.587  325.557  325.526  325.492  325.457  325.421  325.386  325.352  325.322  325.298  325.284
  20   325.797  325.789  325.775  325.757  325.735  325.711  325.686  325.660  325.632  325.601  325.569  325.535  325.499  325.462  325.424  325.388  325.353  325.321  325.296  325.282
  21   325.808  325.801  325.788  325.770  325.748  325.724  325.698  325.670  325.641  325.609  325.575  325.539  325.502  325.464  325.426  325.389  325.353  325.321  325.296  325.281

 HEAD WILL BE SAVED ON UNIT 1016 AT END OF TIME STEP    6, STRESS PERIOD    2


  VOLUME BUDGET FOR ENTIRE MODEL AT END OF TIME STEP    6, STRESS PERIOD   2
  ---------------------------------------------------------------------------------------------------

     CUMULATIVE VOLUME      L**3       RATES FOR THIS TIME STEP      L**3/T          PACKAGE NAME    
     ------------------                 ------------------------                     ----------------

           IN:                                      IN:
           ---                                      ---
              STO-SS =    10797228.6916                STO-SS =           7.1838     STORAGE                          
              STO-SY =    19851735.3726                STO-SY =          19.8210     STORAGE                          
                 WEL =           0.0000                   WEL =           0.0000     WEL_0                            
                 DRN =           0.0000                   DRN =           0.0000     DRN_0                            
                 RIV =           0.0000                   RIV =           0.0000     RIV_0                            
                RCHA =  3514338011.6329                  RCHA =      525000.0000     RCHA_0                           

            TOTAL IN =  3544986975.6971              TOTAL IN =      525027.0048

          OUT:                                     OUT:
          ----                                     ----
              STO-SS =           0.0000                STO-SS =           0.0000     STORAGE                          
              STO-SY =           0.0000                STO-SY =           0.0000     STORAGE                          
                 WEL =  1171346003.8776                   WEL =      175000.0000     WEL_0                            
                 DRN =   868229396.2893                   DRN =      127241.7692     DRN_0                            
                 RIV =  1505408568.7290                   RIV =      222782.3796     RIV_0                            
                RCHA =           0.0000                  RCHA =           0.0000     RCHA_0                           

           TOTAL OUT =  3544983968.8960             TOTAL OUT =      525024.1488

            IN - OUT =        3006.8012              IN - OUT =           2.8560

 PERCENT DISCREPANCY =           0.00     PERCENT DISCREPANCY =           0.00




         TIME SUMMARY AT END OF TIME STEP    6 IN STRESS PERIOD    2
                    SECONDS     MINUTES      HOURS       DAYS        YEARS
                    -----------------------------------------------------------
   TIME STEP LENGTH 2.11309E+08 3.52181E+06  58697.      2445.7      6.6960    
 STRESS PERIOD TIME 5.78273E+08 9.63789E+06 1.60631E+05  6693.0      18.324    
         TOTAL TIME 5.78360E+08 9.63933E+06 1.60655E+05  6694.0      18.327    


end timestep


start timestep kper="2" kstp="7" mode="normal"


 DRN PACKAGE (DRN_0) FLOW RATES   PERIOD      2   STEP        7
 -----------------------------------------------
   NUMBER   CELLID                    RATE      
 -----------------------------------------------
     1      (1,15,10)            -38151.656     
     2      (1,15,11)            -19313.504     
     3      (1,15,12)            -16075.189     
     4      (1,15,13)            -14507.100     
     5      (1,15,14)            -13160.305     
     6      (1,15,15)            -11564.828     
     7      (1,15,16)            -9338.3426     
     8      (1,15,17)            -5118.4741     
     9      (1,15,18)             0.0000000     
     10     (1,15,19)             0.0000000     
     11     (1,15,20)             0.0000000     
 -----------------------------------------------



1
  HEAD IN LAYER   1 AT END OF TIME STEP   7 IN STRESS PERIOD    2
  ---------------------------------------------------------------------------

            1        2        3        4        5        6        7        8        9       10       11       12       13       14       15       16       17       18       19       20
 .......................................................................................................................................................................................
   1   332.975  332.928  332.835  332.696  332.511  332.282  332.010  331.692  331.328  330.913  330.439  329.896  329.266  328.532  327.667  326.643  325.425  323.970  322.226  320.126
   2   332.944  332.896  332.801  332.658  332.469  332.235  331.957  331.635  331.268  330.851  330.379  329.838  329.214  328.485  327.628  326.612  325.401  323.954  322.217  320.125
   3   332.885  332.834  332.734  332.584  332.385  332.141  331.851  331.519  331.144  330.724  330.254  329.720  329.106  328.391  327.548  326.547  325.352  323.921  322.200  320.124
   4   332.798  332.743  332.635  332.473  332.259  331.997  331.688  331.338  330.950  330.525  330.057  329.535  328.939  328.246  327.426  326.449  325.278  323.870  322.174  320.123
   5   332.686  332.626  332.506  332.328  332.092  331.802  331.464  331.085  330.674  330.238  329.776  329.273  328.705  328.044  327.259  326.316  325.178  323.802  322.138  320.121
   6   332.554  332.487  332.352  332.151  331.885  331.557  331.174  330.748  330.299  329.844  329.391  328.920  328.396  327.782  327.043  326.145  325.050  323.717  322.094  320.119
   7   332.406  332.330  332.178  331.949  331.643  331.261  330.812  330.312  329.794  329.303  328.870  328.455  327.999  327.453  326.777  325.936  324.895  323.613  322.040  320.116
   8   332.251  332.165  331.992  331.730  331.374  330.923  330.379  329.760  329.116  328.547  328.165  327.855  327.508  327.056  326.460  325.690  324.713  323.491  321.977  320.113
   9   332.096  332.000  331.805  331.506  331.095  330.560  329.890  329.087  328.199  327.424  327.204  327.105  326.924  326.596  326.097  325.407  324.503  323.351  321.905  320.110
  10   331.950  331.844  331.629  331.296  330.830  330.208  329.393  328.331  326.977  325.525  325.910  326.228  326.279  326.091  325.694  325.092  324.268  323.194  321.824  320.106
  11   331.822  331.708  331.476  331.115  330.607  329.919  328.989  327.680  325.615  321.439  324.434  325.389  325.647  325.568  325.259  324.742  324.006  323.019  321.735  320.101
  12   331.718  331.600  331.357  330.979  330.448  329.738  328.799  327.570  326.014  324.369  324.673  324.996  325.114  325.036  324.782  324.349  323.713  322.827  321.639  320.097
  13   331.645  331.524  331.278  330.895  330.358  329.652  328.735  327.585  326.252  325.025  324.630  324.557  324.524  324.427  324.225  323.890  323.378  322.620  321.540  320.092
  14   331.601  331.483  331.240  330.864  330.340  329.645  328.741  327.584  326.152  324.588  324.002  323.810  323.731  323.653  323.528  323.326  322.994  322.417  321.452  320.088
  15   331.586  331.472  331.240  330.880  330.380  329.713  328.836  327.658  325.944  322.882  322.693  322.661  322.645  322.632  322.616  322.593  322.551  322.281  321.407  320.086
  16   331.594  331.487  331.268  330.932  330.468  329.857  329.070  328.065  326.795  325.324  324.651  324.295  324.056  323.854  323.642  323.384  323.020  322.426  321.453  320.088
  17   331.618  331.518  331.315  331.007  330.585  330.042  329.365  328.551  327.619  326.677  326.003  325.523  325.142  324.793  324.424  323.985  323.414  322.628  321.538  320.092
  18   331.649  331.556  331.370  331.088  330.708  330.229  329.650  328.982  328.255  327.536  326.920  326.401  325.941  325.492  325.007  324.439  323.730  322.816  321.626  320.096
  19   331.680  331.593  331.421  331.162  330.817  330.389  329.883  329.313  328.705  328.097  327.527  327.001  326.497  325.983  325.421  324.765  323.966  322.964  321.698  320.100
  20   331.704  331.623  331.460  331.217  330.897  330.503  330.045  329.534  328.992  328.441  327.900  327.373  326.847  326.296  325.686  324.976  324.121  323.065  321.748  320.102
  21   331.717  331.638  331.481  331.247  330.939  330.563  330.127  329.644  329.131  328.605  328.078  327.552  327.016  326.447  325.815  325.080  324.198  323.115  321.774  320.103
1
  HEAD IN LAYER   2 AT END OF TIME STEP   7 IN STRESS PERIOD    2
  ---------------------------------------------------------------------------

            1        2        3        4        5        6        7        8        9       10       11       12       13       14       15       16       17       18       19       20
 .......................................................................................................................................................................................
   1   329.683  329.656  329.603  329.524  329.419  329.289  329.135  328.955  328.751  328.518  328.255  327.955  327.611  327.214  326.751  326.211  325.575  324.824  323.934  322.876
   2   329.661  329.634  329.579  329.498  329.391  329.259  329.102  328.921  328.715  328.482  328.220  327.921  327.580  327.187  326.728  326.191  325.560  324.813  323.927  322.873
   3   329.618  329.589  329.532  329.447  329.336  329.198  329.036  328.850  328.641  328.408  328.147  327.853  327.518  327.132  326.681  326.153  325.529  324.791  323.914  322.867
   4   329.554  329.523  329.462  329.372  329.253  329.107  328.936  328.742  328.527  328.292  328.034  327.747  327.422  327.047  326.610  326.094  325.483  324.758  323.893  322.859
   5   329.471  329.437  329.371  329.272  329.142  328.983  328.798  328.591  328.366  328.127  327.873  327.598  327.289  326.932  326.513  326.015  325.422  324.713  323.865  322.849
   6   329.371  329.334  329.260  329.149  329.004  328.827  328.621  328.392  328.150  327.904  327.657  327.399  327.114  326.783  326.389  325.915  325.345  324.658  323.831  322.837
   7   329.258  329.216  329.132  329.006  328.841  328.638  328.401  328.138  327.864  327.603  327.369  327.142  326.893  326.598  326.237  325.794  325.252  324.592  323.791  322.822
   8   329.136  329.088  328.991  328.847  328.657  328.421  328.140  327.821  327.488  327.191  326.986  326.815  326.623  326.377  326.059  325.653  325.144  324.516  323.745  322.807
   9   329.010  328.954  328.843  328.677  328.457  328.182  327.844  327.438  326.989  326.593  326.473  326.411  326.306  326.125  325.857  325.493  325.023  324.430  323.695  322.791
  10   328.887  328.823  328.694  328.502  328.250  327.938  327.537  327.012  326.336  325.608  325.794  325.944  325.958  325.849  325.635  325.316  324.888  324.336  323.639  322.774
  11   328.775  328.701  328.552  328.327  328.039  327.710  327.271  326.637  325.616  323.536  325.027  325.499  325.618  325.566  325.397  325.124  324.740  324.233  323.580  322.758
  12   328.684  328.600  328.427  328.158  327.802  327.519  327.113  326.539  325.782  324.969  325.122  325.280  325.331  325.281  325.141  324.911  324.578  324.122  323.518  322.742
  13   328.622  328.533  328.343  328.015  327.430  327.375  327.037  326.519  325.880  325.278  325.082  325.043  325.019  324.960  324.847  324.667  324.397  324.006  323.456  322.728
  14   328.596  328.512  328.339  328.071  327.719  327.443  327.056  326.517  325.823  325.050  324.758  324.658  324.610  324.561  324.487  324.373  324.194  323.894  323.402  322.715
  15   328.599  328.524  328.375  328.152  327.867  327.550  327.138  326.569  325.724  324.199  324.101  324.079  324.062  324.044  324.023  323.999  323.964  323.817  323.371  322.706
  16   328.621  328.556  328.426  328.233  327.982  327.676  327.290  326.794  326.161  325.424  325.081  324.894  324.764  324.650  324.531  324.388  324.193  323.884  323.388  322.701
  17   328.654  328.596  328.482  328.311  328.087  327.808  327.467  327.058  326.588  326.110  325.763  325.512  325.309  325.120  324.921  324.686  324.387  323.981  323.426  322.698
  18   328.689  328.637  328.535  328.382  328.180  327.931  327.634  327.292  326.920  326.550  326.229  325.956  325.711  325.471  325.213  324.912  324.543  324.072  323.467  322.697
  19   328.721  328.673  328.579  328.440  328.257  328.032  327.768  327.472  327.157  326.839  326.540  326.261  325.993  325.719  325.421  325.076  324.660  324.145  323.501  322.697
  20   328.744  328.700  328.612  328.481  328.310  328.102  327.861  327.593  327.308  327.018  326.732  326.452  326.171  325.878  325.554  325.182  324.738  324.195  323.525  322.697
  21   328.757  328.714  328.629  328.503  328.338  328.138  327.908  327.653  327.382  327.103  326.824  326.543  326.257  325.955  325.620  325.234  324.776  324.220  323.538  322.697
1
  HEAD IN LAYER   3 AT END OF TIME STEP   7 IN STRESS PERIOD    2
  ---------------------------------------------------------------------------

            1        2        3        4        5        6        7        8        9       10       11       12       13       14       15       16       17       18       19       20
 .......................................................................................................................................................................................
   1   326.404  326.397  326.384  326.365  326.339  326.308  326.271  326.230  326.184  326.133  326.079  326.022  325.962  325.901  325.839  325.780  325.724  325.675  325.636  325.614
   2   326.390  326.384  326.370  326.351  326.325  326.294  326.258  326.217  326.172  326.122  326.069  326.013  325.954  325.893  325.832  325.773  325.717  325.669  325.631  325.609
   3   326.363  326.356  326.343  326.324  326.298  326.268  326.233  326.193  326.148  326.100  326.049  325.994  325.936  325.877  325.818  325.760  325.705  325.658  325.621  325.599
   4   326.322  326.316  326.302  326.283  326.258  326.228  326.194  326.156  326.113  326.068  326.018  325.966  325.911  325.854  325.797  325.741  325.688  325.642  325.605  325.584
   5   326.268  326.261  326.247  326.228  326.203  326.175  326.142  326.106  326.067  326.024  325.978  325.929  325.878  325.824  325.770  325.716  325.665  325.621  325.586  325.565
   6   326.202  326.194  326.179  326.159  326.135  326.107  326.078  326.045  326.010  325.971  325.930  325.885  325.837  325.788  325.737  325.686  325.638  325.596  325.562  325.542
   7   326.123  326.114  326.097  326.075  326.051  326.026  326.000  325.973  325.943  325.910  325.874  325.834  325.792  325.747  325.700  325.653  325.608  325.568  325.536  325.517
   8   326.034  326.022  326.002  325.976  325.951  325.929  325.909  325.889  325.866  325.840  325.811  325.778  325.742  325.702  325.659  325.616  325.575  325.537  325.507  325.489
   9   325.937  325.921  325.893  325.859  325.830  325.814  325.805  325.796  325.784  325.766  325.745  325.720  325.689  325.655  325.618  325.579  325.540  325.505  325.477  325.460
  10   325.837  325.813  325.771  325.720  325.681  325.676  325.687  325.697  325.698  325.691  325.679  325.661  325.638  325.609  325.576  325.540  325.505  325.473  325.447  325.431
  11   325.741  325.706  325.639  325.551  325.481  325.510  325.560  325.598  325.617  325.620  325.618  325.607  325.589  325.565  325.536  325.504  325.472  325.442  325.418  325.403
  12   325.661  325.612  325.509  325.347  325.166  325.308  325.434  325.512  325.551  325.566  325.569  325.562  325.547  325.525  325.499  325.470  325.440  325.413  325.390  325.376
  13   325.612  325.554  325.419  325.146  324.511  325.108  325.347  325.457  325.509  325.529  325.533  325.527  325.512  325.492  325.467  325.440  325.413  325.387  325.365  325.352
  14   325.602  325.553  325.450  325.289  325.108  325.250  325.377  325.455  325.495  325.510  325.511  325.502  325.486  325.466  325.442  325.416  325.389  325.365  325.344  325.332
  15   325.623  325.588  325.521  325.434  325.365  325.395  325.446  325.485  325.505  325.508  325.502  325.490  325.471  325.449  325.424  325.398  325.372  325.347  325.327  325.315
  16   325.660  325.637  325.595  325.545  325.507  325.504  325.516  325.528  325.530  325.523  325.510  325.491  325.469  325.444  325.416  325.388  325.361  325.336  325.315  325.302
  17   325.702  325.687  325.659  325.626  325.599  325.584  325.577  325.571  325.560  325.545  325.524  325.501  325.474  325.445  325.415  325.385  325.355  325.328  325.306  325.293
  18   325.742  325.731  325.711  325.686  325.662  325.643  325.626  325.609  325.590  325.567  325.541  325.513  325.483  325.450  325.417  325.384  325.352  325.324  325.301  325.287
  19   325.774  325.765  325.749  325.729  325.706  325.684  325.662  325.639  325.614  325.587  325.557  325.525  325.491  325.456  325.421  325.386  325.352  325.322  325.298  325.283
  20   325.796  325.789  325.775  325.756  325.734  325.711  325.686  325.659  325.631  325.601  325.568  325.534  325.498  325.461  325.424  325.387  325.352  325.321  325.296  325.281
  21   325.807  325.801  325.787  325.769  325.748  325.724  325.698  325.670  325.640  325.608  325.574  325.539  325.502  325.464  325.426  325.388  325.352  325.320  325.295  325.280

 HEAD WILL BE SAVED ON UNIT 1016 AT END OF TIME STEP    7, STRESS PERIOD    2


  VOLUME BUDGET FOR ENTIRE MODEL AT END OF TIME STEP    7, STRESS PERIOD   2
  ---------------------------------------------------------------------------------------------------

     CUMULATIVE VOLUME      L**3       RATES FOR THIS TIME STEP      L**3/T          PACKAGE NAME    
     ------------------                 ------------------------                     ----------------

           IN:                                      IN:
           ---                                      ---
              STO-SS =    10799158.0338                STO-SS =           0.5259     STORAGE                          
              STO-SY =    19857327.7542                STO-SY =           1.5244     STORAGE                          
                 WEL =           0.0000                   WEL =           0.0000     WEL_0                            
                 DRN =           0.0000                   DRN =           0.0000     DRN_0                            
                 RIV =           0.0000                   RIV =           0.0000     RIV_0                            
                RCHA =  5440330256.3550                  RCHA =      525000.0000     RCHA_0                           

            TOTAL IN =  5470986742.1430              TOTAL IN =      525002.0503

          OUT:                                     OUT:
          ----                                     ----
              STO-SS =           0.0000                STO-SS =           0.0000     STORAGE                          
              STO-SY =           0.0000                STO-SY =           0.0000     STORAGE                          
                 WEL =  1813343418.7850                   WEL =      175000.0000     WEL_0                            
                 DRN =  1334977653.7912                   DRN =      127229.3987     DRN_0                            
                 RIV =  2322661217.1917                   RIV =      222772.2576     RIV_0                            
                RCHA =           0.0000                  RCHA =           0.0000     RCHA_0                           

           TOTAL OUT =  5470982289.7679             TOTAL OUT =      525001.6563

            IN - OUT =        4452.3751              IN - OUT =           0.3940

 PERCENT DISCREPANCY =           0.00     PERCENT DISCREPANCY =           0.00




         TIME SUMMARY AT END OF TIME STEP    7 IN STRESS PERIOD    2
                    SECONDS     MINUTES      HOURS       DAYS        YEARS
                    -----------------------------------------------------------
   TIME STEP LENGTH 3.16963E+08 5.28272E+06  88045.      3668.6      10.044    
 STRESS PERIOD TIME 8.95237E+08 1.49206E+07 2.48677E+05  10362.      28.368    
         TOTAL TIME 8.95323E+08 1.49220E+07 2.48701E+05  10363.      28.371    


end timestep


start timestep kper="2" kstp="8" mode="normal"


 DRN PACKAGE (DRN_0) FLOW RATES   PERIOD      2   STEP        8
 -----------------------------------------------
   NUMBER   CELLID                    RATE      
 -----------------------------------------------
     1      (1,15,10)            -38151.678     
     2      (1,15,11)            -19313.509     
     3      (1,15,12)            -16075.192     
     4      (1,15,13)            -14507.103     
     5      (1,15,14)            -13160.307     
     6      (1,15,15)            -11564.828     
     7      (1,15,16)            -9338.3394     
     8      (1,15,17)            -5118.4658     
     9      (1,15,18)             0.0000000     
     10     (1,15,19)             0.0000000     
     11     (1,15,20)             0.0000000     
 -----------------------------------------------



1
  HEAD IN LAYER   1 AT END OF TIME STEP   8 IN STRESS PERIOD    2
  ---------------------------------------------------------------------------

            1        2        3        4        5        6        7        8        9       10       11       12       13       14       15       16       17       18       19       20
 .......................................................................................................................................................................................
   1   332.975  332.928  332.835  332.696  332.511  332.282  332.010  331.692  331.328  330.913  330.439  329.896  329.266  328.532  327.667  326.643  325.425  323.970  322.226  320.126
   2   332.944  332.896  332.801  332.658  332.469  332.235  331.957  331.635  331.268  330.851  330.379  329.838  329.214  328.485  327.628  326.612  325.401  323.954  322.217  320.125
   3   332.885  332.834  332.734  332.584  332.385  332.141  331.851  331.519  331.144  330.724  330.254  329.720  329.106  328.391  327.548  326.547  325.352  323.921  322.200  320.124
   4   332.798  332.743  332.635  332.473  332.259  331.997  331.688  331.338  330.950  330.525  330.057  329.535  328.939  328.246  327.426  326.449  325.278  323.870  322.174  320.123
   5   332.686  332.626  332.506  332.328  332.092  331.802  331.464  331.085  330.674  330.238  329.776  329.273  328.705  328.044  327.259  326.316  325.178  323.802  322.138  320.121
   6   332.554  332.487  332.352  332.151  331.885  331.557  331.174  330.748  330.299  329.844  329.391  328.920  328.396  327.782  327.043  326.145  325.050  323.717  322.094  320.119
   7   332.406  332.330  332.178  331.949  331.643  331.261  330.812  330.312  329.794  329.303  328.870  328.455  327.999  327.453  326.777  325.936  324.895  323.613  322.040  320.116
   8   332.251  332.165  331.992  331.730  331.374  330.923  330.379  329.760  329.116  328.547  328.165  327.855  327.508  327.056  326.460  325.690  324.713  323.491  321.977  320.113
   9   332.096  332.000  331.805  331.506  331.095  330.560  329.890  329.087  328.199  327.424  327.204  327.105  326.924  326.596  326.097  325.407  324.503  323.351  321.905  320.110
  10   331.950  331.844  331.629  331.296  330.830  330.208  329.393  328.331  326.977  325.525  325.910  326.228  326.279  326.091  325.694  325.092  324.268  323.194  321.824  320.106
  11   331.822  331.708  331.476  331.115  330.607  329.919  328.989  327.680  325.615  321.439  324.434  325.389  325.647  325.568  325.259  324.742  324.006  323.019  321.735  320.101
  12   331.718  331.600  331.357  330.979  330.448  329.738  328.799  327.570  326.014  324.369  324.673  324.996  325.114  325.036  324.782  324.349  323.713  322.827  321.639  320.097
  13   331.645  331.524  331.278  330.895  330.358  329.652  328.735  327.585  326.252  325.025  324.630  324.557  324.524  324.427  324.225  323.890  323.378  322.620  321.540  320.092
  14   331.601  331.483  331.240  330.864  330.340  329.645  328.741  327.584  326.152  324.588  324.002  323.810  323.731  323.653  323.528  323.326  322.994  322.417  321.452  320.088
  15   331.586  331.472  331.240  330.880  330.380  329.713  328.836  327.658  325.944  322.882  322.693  322.661  322.645  322.632  322.616  322.593  322.551  322.281  321.407  320.086
  16   331.594  331.487  331.268  330.932  330.468  329.857  329.070  328.065  326.795  325.324  324.651  324.295  324.056  323.854  323.642  323.384  323.020  322.426  321.453  320.088
  17   331.618  331.518  331.315  331.007  330.585  330.042  329.365  328.551  327.619  326.677  326.003  325.523  325.142  324.793  324.424  323.985  323.414  322.628  321.538  320.092
  18   331.649  331.556  331.370  331.088  330.708  330.229  329.650  328.982  328.255  327.536  326.920  326.401  325.941  325.492  325.007  324.439  323.730  322.816  321.626  320.096
  19   331.680  331.593  331.421  331.162  330.817  330.389  329.883  329.313  328.705  328.097  327.527  327.001  326.497  325.983  325.421  324.765  323.966  322.964  321.698  320.100
  20   331.704  331.623  331.460  331.217  330.897  330.503  330.045  329.534  328.992  328.441  327.900  327.373  326.847  326.296  325.686  324.976  324.121  323.065  321.748  320.102
  21   331.717  331.638  331.481  331.247  330.939  330.563  330.127  329.644  329.131  328.605  328.078  327.552  327.016  326.447  325.815  325.080  324.198  323.115  321.774  320.103
1
  HEAD IN LAYER   2 AT END OF TIME STEP   8 IN STRESS PERIOD    2
  ---------------------------------------------------------------------------

            1        2        3        4        5        6        7        8        9       10       11       12       13       14       15       16       17       18       19       20
 .......................................................................................................................................................................................
   1   329.683  329.656  329.603  329.524  329.419  329.289  329.135  328.955  328.751  328.518  328.255  327.955  327.611  327.214  326.751  326.211  325.575  324.824  323.934  322.876
   2   329.661  329.634  329.579  329.498  329.391  329.259  329.102  328.921  328.715  328.482  328.220  327.921  327.580  327.187  326.728  326.191  325.560  324.813  323.927  322.873
   3   329.618  329.589  329.532  329.447  329.336  329.198  329.036  328.850  328.641  328.408  328.147  327.853  327.518  327.132  326.681  326.153  325.529  324.791  323.914  322.867
   4   329.554  329.523  329.462  329.372  329.253  329.107  328.936  328.742  328.527  328.292  328.034  327.747  327.422  327.047  326.610  326.094  325.483  324.758  323.893  322.859
   5   329.471  329.437  329.371  329.272  329.142  328.983  328.798  328.591  328.366  328.127  327.873  327.598  327.289  326.932  326.513  326.015  325.422  324.713  323.865  322.849
   6   329.371  329.334  329.260  329.149  329.004  328.827  328.621  328.392  328.150  327.904  327.657  327.399  327.114  326.783  326.389  325.915  325.345  324.658  323.831  322.837
   7   329.258  329.216  329.132  329.006  328.841  328.638  328.401  328.138  327.864  327.603  327.369  327.142  326.893  326.598  326.237  325.794  325.252  324.592  323.791  322.822
   8   329.136  329.088  328.991  328.847  328.657  328.421  328.140  327.821  327.488  327.191  326.986  326.815  326.623  326.377  326.059  325.653  325.144  324.516  323.745  322.807
   9   329.010  328.954  328.843  328.677  328.457  328.182  327.844  327.438  326.989  326.593  326.473  326.411  326.306  326.125  325.857  325.493  325.023  324.430  323.695  322.791
  10   328.887  328.823  328.694  328.502  328.250  327.938  327.537  327.012  326.336  325.608  325.794  325.944  325.958  325.849  325.635  325.316  324.888  324.336  323.639  322.774
  11   328.775  328.701  328.552  328.327  328.039  327.710  327.271  326.637  325.616  323.536  325.027  325.499  325.618  325.566  325.397  325.124  324.740  324.233  323.580  322.758
  12   328.684  328.600  328.427  328.158  327.802  327.519  327.113  326.539  325.782  324.969  325.122  325.280  325.331  325.281  325.141  324.911  324.578  324.122  323.518  322.742
  13   328.622  328.533  328.343  328.015  327.430  327.375  327.037  326.519  325.880  325.278  325.082  325.043  325.019  324.960  324.847  324.667  324.397  324.006  323.456  322.728
  14   328.596  328.512  328.339  328.071  327.719  327.443  327.056  326.517  325.823  325.050  324.758  324.658  324.610  324.561  324.487  324.373  324.194  323.894  323.402  322.715
  15   328.599  328.524  328.375  328.152  327.867  327.550  327.138  326.569  325.724  324.199  324.101  324.079  324.062  324.044  324.023  323.999  323.964  323.817  323.371  322.706
  16   328.621  328.556  328.426  328.233  327.982  327.676  327.290  326.794  326.161  325.424  325.081  324.894  324.764  324.650  324.531  324.388  324.193  323.884  323.388  322.701
  17   328.654  328.596  328.482  328.311  328.087  327.808  327.467  327.058  326.588  326.110  325.763  325.512  325.308  325.120  324.921  324.686  324.387  323.981  323.426  322.698
  18   328.689  328.637  328.535  328.382  328.180  327.931  327.634  327.292  326.920  326.550  326.229  325.956  325.711  325.471  325.213  324.912  324.543  324.072  323.467  322.697
  19   328.721  328.673  328.579  328.440  328.257  328.032  327.768  327.472  327.157  326.839  326.540  326.261  325.993  325.719  325.421  325.076  324.660  324.145  323.501  322.697
  20   328.744  328.700  328.612  328.481  328.310  328.102  327.861  327.593  327.308  327.018  326.732  326.452  326.171  325.878  325.554  325.182  324.738  324.195  323.525  322.697
  21   328.757  328.714  328.629  328.503  328.338  328.138  327.908  327.653  327.382  327.103  326.824  326.543  326.257  325.955  325.620  325.234  324.776  324.220  323.538  322.697
1
  HEAD IN LAYER   3 AT END OF TIME STEP   8 IN STRESS PERIOD    2
  ---------------------------------------------------------------------------

            1        2        3        4        5        6        7        8        9       10       11       12       13       14       15       16       17       18       19       20
 .......................................................................................................................................................................................
   1   326.404  326.397  326.384  326.365  326.339  326.308  326.271  326.230  326.184  326.133  326.079  326.022  325.962  325.901  325.839  325.780  325.724  325.675  325.636  325.614
   2   326.390  326.384  326.370  326.351  326.325  326.294  326.258  326.217  326.172  326.122  326.069  326.013  325.954  325.893  325.832  325.773  325.717  325.669  325.631  325.609
   3   326.363  326.356  326.343  326.324  326.298  326.268  326.233  326.193  326.148  326.100  326.049  325.994  325.936  325.877  325.818  325.760  325.705  325.658  325.621  325.599
   4   326.322  326.316  326.302  326.283  326.258  326.228  326.194  326.156  326.113  326.068  326.018  325.966  325.911  325.854  325.797  325.741  325.688  325.642  325.605  325.584
   5   326.268  326.261  326.247  326.228  326.203  326.175  326.142  326.106  326.067  326.024  325.978  325.929  325.878  325.824  325.770  325.716  325.665  325.621  325.586  325.565
   6   326.202  326.194  326.179  326.159  326.135  326.107  326.078  326.045  326.010  325.971  325.930  325.885  325.837  325.788  325.737  325.686  325.638  325.596  325.562  325.542
   7   326.123  326.114  326.097  326.075  326.051  326.026  326.000  325.973  325.943  325.910  325.874  325.834  325.792  325.747  325.700  325.653  325.608  325.568  325.536  325.517
   8   326.034  326.022  326.002  325.976  325.951  325.929  325.909  325.889  325.866  325.840  325.811  325.778  325.742  325.702  325.659  325.616  325.575  325.537  325.507  325.489
   9   325.937  325.921  325.893  325.859  325.830  325.814  325.805  325.796  325.784  325.766  325.745  325.720  325.689  325.655  325.618  325.579  325.540  325.505  325.477  325.460
  10   325.837  325.813  325.771  325.720  325.681  325.676  325.687  325.697  325.698  325.691  325.679  325.661  325.638  325.609  325.576  325.540  325.505  325.473  325.447  325.431
  11   325.741  325.706  325.639  325.551  325.481  325.510  325.560  325.598  325.617  325.620  325.618  325.607  325.589  325.565  325.536  325.504  325.472  325.442  325.418  325.403
  12   325.661  325.612  325.509  325.347  325.166  325.308  325.434  325.512  325.551  325.566  325.569  325.562  325.547  325.525  325.499  325.470  325.440  325.413  325.390  325.376
  13   325.612  325.554  325.419  325.146  324.511  325.108  325.347  325.457  325.509  325.529  325.533  325.527  325.512  325.492  325.467  325.440  325.413  325.387  325.365  325.352
  14   325.602  325.553  325.450  325.289  325.108  325.250  325.377  325.455  325.495  325.510  325.511  325.502  325.486  325.466  325.442  325.416  325.389  325.365  325.344  325.332
  15   325.623  325.588  325.521  325.434  325.365  325.395  325.446  325.485  325.505  325.508  325.502  325.490  325.471  325.449  325.424  325.398  325.372  325.347  325.327  325.315
  16   325.660  325.637  325.595  325.545  325.507  325.504  325.516  325.528  325.530  325.523  325.510  325.491  325.469  325.444  325.416  325.388  325.361  325.336  325.315  325.302
  17   325.702  325.687  325.659  325.626  325.599  325.584  325.577  325.571  325.560  325.545  325.524  325.501  325.474  325.445  325.415  325.385  325.355  325.328  325.306  325.293
  18   325.742  325.731  325.711  325.686  325.662  325.643  325.626  325.609  325.590  325.567  325.541  325.513  325.483  325.450  325.417  325.384  325.352  325.324  325.301  325.287
  19   325.774  325.765  325.749  325.729  325.706  325.684  325.662  325.639  325.614  325.587  325.557  325.525  325.491  325.456  325.421  325.386  325.352  325.322  325.298  325.283
  20   325.796  325.789  325.775  325.756  325.734  325.711  325.686  325.659  325.631  325.601  325.568  325.534  325.498  325.461  325.424  325.387  325.352  325.321  325.296  325.281
  21   325.807  325.801  325.787  325.769  325.748  325.724  325.698  325.670  325.640  325.608  325.574  325.539  325.502  325.464  325.426  325.388  325.352  325.320  325.295  325.280

 HEAD WILL BE SAVED ON UNIT 1016 AT END OF TIME STEP    8, STRESS PERIOD    2


  VOLUME BUDGET FOR ENTIRE MODEL AT END OF TIME STEP    8, STRESS PERIOD   2
  ---------------------------------------------------------------------------------------------------

     CUMULATIVE VOLUME      L**3       RATES FOR THIS TIME STEP      L**3/T          PACKAGE NAME    
     ------------------                 ------------------------                     ----------------

           IN:                                      IN:
           ---                                      ---
              STO-SS =    10799161.3536                STO-SS =       6.0330E-04     STORAGE                          
              STO-SY =    19857352.0981                STO-SY =       4.4239E-03     STORAGE                          
                 WEL =           0.0000                   WEL =           0.0000     WEL_0                            
                 DRN =           0.0000                   DRN =           0.0000     DRN_0                            
                 RIV =           0.0000                   RIV =           0.0000     RIV_0                            
                RCHA =  8329318623.4382                  RCHA =      525000.0000     RCHA_0                           

            TOTAL IN =  8359975136.8898              TOTAL IN =      525000.0050

          OUT:                                     OUT:
          ----                                     ----
              STO-SS =           0.3634                STO-SS =       6.6045E-05     STORAGE                          
              STO-SY =           0.7612                STO-SY =       1.3833E-04     STORAGE                          
                 WEL =  2776339541.1461                   WEL =      175000.0000     WEL_0                            
                 DRN =  2035100176.0716                   DRN =      127229.4234     DRN_0                            
                 RIV =  3548540067.3958                   RIV =      222772.2353     RIV_0                            
                RCHA =           0.0000                  RCHA =           0.0000     RCHA_0                           

           TOTAL OUT =  8359979785.7381             TOTAL OUT =      525001.6589

            IN - OUT =       -4648.8483              IN - OUT =          -1.6539

 PERCENT DISCREPANCY =          -0.00     PERCENT DISCREPANCY =          -0.00




         TIME SUMMARY AT END OF TIME STEP    8 IN STRESS PERIOD    2
                    SECONDS     MINUTES      HOURS       DAYS        YEARS
                    -----------------------------------------------------------
   TIME STEP LENGTH 4.75445E+08 7.92408E+06 1.32068E+05  5502.8      15.066    
 STRESS PERIOD TIME 1.37068E+09 2.28447E+07 3.80745E+05  15864.      43.434    
         TOTAL TIME 1.37077E+09 2.28461E+07 3.80769E+05  15865.      43.437    


end timestep


start timestep kper="2" kstp="9" mode="normal"


 DRN PACKAGE (DRN_0) FLOW RATES   PERIOD      2   STEP        9
 -----------------------------------------------
   NUMBER   CELLID                    RATE      
 -----------------------------------------------
     1      (1,15,10)            -38151.650     
     2      (1,15,11)            -19313.497     
     3      (1,15,12)            -16075.183     
     4      (1,15,13)            -14507.094     
     5      (1,15,14)            -13160.299     
     6      (1,15,15)            -11564.822     
     7      (1,15,16)            -9338.3362     
     8      (1,15,17)            -5118.4660     
     9      (1,15,18)             0.0000000     
     10     (1,15,19)             0.0000000     
     11     (1,15,20)             0.0000000     
 -----------------------------------------------



1
  HEAD IN LAYER   1 AT END OF TIME STEP   9 IN STRESS PERIOD    2
  ---------------------------------------------------------------------------

            1        2        3        4        5        6        7        8        9       10       11       12       13       14       15       16       17       18       19       20
 .......................................................................................................................................................................................
   1   332.975  332.928  332.835  332.696  332.511  332.282  332.010  331.692  331.328  330.913  330.439  329.896  329.266  328.532  327.667  326.643  325.425  323.970  322.226  320.126
   2   332.944  332.896  332.801  332.658  332.469  332.235  331.957  331.635  331.268  330.851  330.379  329.838  329.214  328.485  327.628  326.612  325.401  323.954  322.217  320.125
   3   332.885  332.834  332.734  332.584  332.385  332.141  331.851  331.519  331.144  330.724  330.254  329.720  329.106  328.391  327.548  326.547  325.352  323.921  322.200  320.124
   4   332.798  332.743  332.635  332.473  332.259  331.997  331.688  331.338  330.950  330.525  330.057  329.535  328.939  328.246  327.426  326.449  325.278  323.870  322.174  320.123
   5   332.686  332.626  332.506  332.328  332.092  331.802  331.464  331.085  330.674  330.238  329.776  329.273  328.705  328.044  327.259  326.316  325.178  323.802  322.138  320.121
   6   332.554  332.487  332.352  332.151  331.885  331.557  331.174  330.748  330.299  329.844  329.391  328.920  328.396  327.782  327.043  326.145  325.050  323.717  322.094  320.119
   7   332.406  332.330  332.178  331.949  331.643  331.261  330.812  330.312  329.794  329.303  328.870  328.455  327.999  327.453  326.777  325.936  324.895  323.613  322.040  320.116
   8   332.251  332.165  331.992  331.730  331.374  330.923  330.379  329.760  329.116  328.547  328.165  327.855  327.508  327.056  326.460  325.690  324.713  323.491  321.977  320.113
   9   332.096  332.000  331.805  331.506  331.095  330.560  329.890  329.087  328.199  327.424  327.204  327.105  326.924  326.596  326.097  325.407  324.503  323.351  321.905  320.110
  10   331.950  331.844  331.629  331.296  330.830  330.208  329.393  328.331  326.977  325.525  325.910  326.228  326.279  326.091  325.694  325.092  324.268  323.194  321.824  320.106
  11   331.822  331.708  331.476  331.115  330.607  329.919  328.989  327.680  325.615  321.439  324.434  325.389  325.647  325.568  325.259  324.742  324.006  323.019  321.735  320.101
  12   331.718  331.600  331.357  330.979  330.448  329.738  328.799  327.570  326.014  324.369  324.673  324.996  325.114  325.036  324.782  324.349  323.713  322.827  321.639  320.097
  13   331.645  331.524  331.278  330.895  330.358  329.652  328.735  327.585  326.252  325.025  324.630  324.557  324.524  324.427  324.225  323.890  323.378  322.620  321.540  320.092
  14   331.601  331.483  331.240  330.864  330.340  329.645  328.741  327.584  326.152  324.588  324.002  323.810  323.731  323.653  323.528  323.326  322.994  322.417  321.452  320.088
  15   331.586  331.472  331.240  330.880  330.380  329.713  328.836  327.658  325.944  322.882  322.693  322.661  322.645  322.632  322.616  322.593  322.551  322.281  321.407  320.086
  16   331.594  331.487  331.268  330.932  330.468  329.857  329.070  328.065  326.795  325.324  324.651  324.295  324.056  323.854  323.642  323.384  323.020  322.426  321.453  320.088
  17   331.618  331.518  331.315  331.007  330.585  330.041  329.365  328.551  327.619  326.677  326.003  325.523  325.142  324.793  324.424  323.985  323.414  322.628  321.538  320.092
  18   331.649  331.556  331.370  331.088  330.708  330.229  329.650  328.982  328.255  327.536  326.920  326.401  325.941  325.492  325.007  324.439  323.730  322.816  321.626  320.096
  19   331.680  331.593  331.421  331.162  330.817  330.389  329.883  329.313  328.705  328.097  327.527  327.001  326.497  325.983  325.421  324.765  323.966  322.964  321.698  320.100
  20   331.704  331.623  331.460  331.217  330.897  330.503  330.045  329.534  328.992  328.441  327.900  327.373  326.847  326.296  325.686  324.976  324.121  323.065  321.748  320.102
  21   331.717  331.638  331.481  331.247  330.939  330.563  330.127  329.644  329.131  328.605  328.078  327.552  327.016  326.447  325.815  325.080  324.198  323.115  321.774  320.103
1
  HEAD IN LAYER   2 AT END OF TIME STEP   9 IN STRESS PERIOD    2
  ---------------------------------------------------------------------------

            1        2        3        4        5        6        7        8        9       10       11       12       13       14       15       16       17       18       19       20
 .......................................................................................................................................................................................
   1   329.683  329.656  329.603  329.524  329.419  329.289  329.135  328.955  328.751  328.518  328.255  327.955  327.611  327.214  326.751  326.211  325.575  324.824  323.934  322.876
   2   329.661  329.634  329.579  329.498  329.391  329.259  329.102  328.921  328.715  328.482  328.220  327.921  327.580  327.187  326.728  326.191  325.560  324.813  323.927  322.873
   3   329.618  329.589  329.532  329.447  329.336  329.198  329.036  328.850  328.641  328.408  328.147  327.853  327.518  327.132  326.681  326.153  325.529  324.791  323.914  322.867
   4   329.554  329.523  329.462  329.372  329.253  329.107  328.936  328.742  328.527  328.292  328.034  327.747  327.422  327.047  326.610  326.094  325.483  324.758  323.893  322.859
   5   329.471  329.437  329.371  329.272  329.142  328.983  328.798  328.591  328.366  328.127  327.873  327.598  327.289  326.932  326.513  326.015  325.422  324.713  323.865  322.849
   6   329.371  329.334  329.260  329.149  329.004  328.827  328.621  328.392  328.150  327.904  327.657  327.399  327.114  326.783  326.389  325.915  325.345  324.658  323.831  322.837
   7   329.258  329.216  329.132  329.006  328.841  328.638  328.401  328.138  327.864  327.603  327.369  327.142  326.893  326.598  326.237  325.794  325.252  324.592  323.791  322.822
   8   329.136  329.088  328.991  328.847  328.657  328.421  328.140  327.821  327.488  327.191  326.986  326.815  326.623  326.377  326.059  325.653  325.144  324.516  323.745  322.807
   9   329.010  328.954  328.843  328.677  328.457  328.182  327.843  327.438  326.989  326.593  326.473  326.411  326.306  326.125  325.857  325.493  325.023  324.430  323.695  322.791
  10   328.887  328.823  328.694  328.502  328.250  327.938  327.537  327.012  326.336  325.608  325.794  325.944  325.958  325.849  325.635  325.316  324.888  324.336  323.639  322.774
  11   328.775  328.701  328.552  328.327  328.039  327.710  327.271  326.637  325.616  323.536  325.027  325.499  325.618  325.566  325.397  325.124  324.740  324.233  323.580  322.758
  12   328.684  328.600  328.427  328.158  327.802  327.519  327.113  326.539  325.782  324.969  325.122  325.280  325.331  325.281  325.141  324.911  324.578  324.122  323.518  322.742
  13   328.622  328.533  328.343  328.015  327.430  327.375  327.037  326.519  325.880  325.278  325.082  325.043  325.019  324.960  324.847  324.667  324.397  324.006  323.456  322.728
  14   328.596  328.512  328.339  328.071  327.719  327.443  327.056  326.517  325.823  325.050  324.758  324.658  324.610  324.561  324.487  324.373  324.194  323.894  323.402  322.715
  15   328.599  328.524  328.375  328.152  327.867  327.550  327.138  326.569  325.724  324.199  324.101  324.079  324.062  324.044  324.023  323.999  323.964  323.817  323.371  322.706
  16   328.621  328.556  328.426  328.233  327.982  327.676  327.290  326.794  326.161  325.424  325.081  324.894  324.764  324.650  324.531  324.388  324.193  323.884  323.388  322.701
  17   328.654  328.596  328.482  328.311  328.087  327.808  327.467  327.058  326.588  326.110  325.763  325.512  325.309  325.120  324.921  324.686  324.387  323.981  323.426  322.698
  18   328.689  328.637  328.535  328.382  328.180  327.931  327.634  327.292  326.920  326.550  326.229  325.956  325.711  325.471  325.213  324.912  324.543  324.072  323.467  322.697
  19   328.721  328.673  328.579  328.440  328.257  328.032  327.768  327.472  327.157  326.839  326.540  326.261  325.993  325.719  325.421  325.076  324.660  324.145  323.501  322.697
  20   328.744  328.700  328.612  328.481  328.310  328.102  327.861  327.593  327.308  327.018  326.732  326.452  326.171  325.878  325.554  325.182  324.738  324.195  323.525  322.697
  21   328.757  328.714  328.629  328.503  328.338  328.138  327.908  327.653  327.382  327.103  326.824  326.543  326.257  325.955  325.620  325.234  324.776  324.220  323.538  322.697
1
  HEAD IN LAYER   3 AT END OF TIME STEP   9 IN STRESS PERIOD    2
  ---------------------------------------------------------------------------

            1        2        3        4        5        6        7        8        9       10       11       12       13       14       15       16       17       18       19       20
 .......................................................................................................................................................................................
   1   326.404  326.397  326.384  326.365  326.339  326.308  326.271  326.230  326.184  326.133  326.079  326.022  325.962  325.901  325.839  325.780  325.724  325.675  325.636  325.614
   2   326.390  326.384  326.370  326.351  326.325  326.294  326.258  326.217  326.172  326.122  326.069  326.013  325.954  325.893  325.832  325.773  325.717  325.669  325.631  325.609
   3   326.363  326.356  326.343  326.324  326.298  326.268  326.233  326.193  326.148  326.100  326.049  325.994  325.936  325.877  325.818  325.760  325.705  325.658  325.621  325.599
   4   326.322  326.316  326.302  326.283  326.258  326.228  326.194  326.156  326.113  326.068  326.018  325.966  325.911  325.854  325.797  325.741  325.688  325.642  325.605  325.584
   5   326.268  326.261  326.247  326.228  326.203  326.175  326.142  326.106  326.067  326.024  325.978  325.929  325.878  325.824  325.770  325.716  325.665  325.621  325.586  325.565
   6   326.202  326.194  326.179  326.159  326.135  326.107  326.078  326.045  326.010  325.971  325.930  325.885  325.837  325.788  325.737  325.686  325.638  325.596  325.562  325.542
   7   326.123  326.114  326.097  326.075  326.051  326.026  326.000  325.973  325.943  325.910  325.874  325.834  325.792  325.747  325.700  325.653  325.608  325.568  325.536  325.517
   8   326.034  326.022  326.002  325.976  325.951  325.929  325.909  325.889  325.866  325.840  325.811  325.778  325.742  325.702  325.659  325.616  325.575  325.537  325.507  325.489
   9   325.937  325.921  325.893  325.859  325.830  325.814  325.805  325.796  325.784  325.766  325.745  325.720  325.689  325.655  325.618  325.579  325.540  325.505  325.477  325.460
  10   325.837  325.813  325.771  325.720  325.681  325.676  325.687  325.697  325.698  325.691  325.679  325.661  325.638  325.609  325.576  325.540  325.505  325.473  325.447  325.431
  11   325.741  325.706  325.639  325.551  325.481  325.510  325.560  325.598  325.617  325.620  325.618  325.607  325.589  325.565  325.536  325.504  325.472  325.442  325.418  325.403
  12   325.661  325.612  325.509  325.347  325.166  325.308  325.434  325.512  325.551  325.566  325.569  325.562  325.547  325.525  325.499  325.470  325.440  325.413  325.390  325.376
  13   325.612  325.554  325.419  325.146  324.511  325.108  325.347  325.457  325.509  325.529  325.533  325.527  325.512  325.492  325.467  325.440  325.413  325.387  325.365  325.352
  14   325.602  325.553  325.450  325.289  325.108  325.250  325.377  325.455  325.495  325.510  325.511  325.502  325.486  325.466  325.442  325.416  325.389  325.365  325.344  325.332
  15   325.623  325.588  325.521  325.434  325.365  325.395  325.446  325.485  325.505  325.508  325.502  325.490  325.471  325.449  325.424  325.398  325.372  325.347  325.327  325.315
  16   325.660  325.637  325.595  325.545  325.507  325.504  325.516  325.528  325.530  325.523  325.510  325.491  325.469  325.444  325.416  325.388  325.361  325.336  325.315  325.302
  17   325.702  325.687  325.659  325.626  325.599  325.584  325.577  325.571  325.560  325.545  325.524  325.501  325.474  325.445  325.415  325.385  325.355  325.328  325.306  325.293
  18   325.742  325.731  325.711  325.686  325.662  325.643  325.626  325.609  325.590  325.567  325.541  325.513  325.483  325.450  325.417  325.384  325.352  325.324  325.301  325.287
  19   325.774  325.765  325.749  325.729  325.706  325.684  325.662  325.639  325.614  325.587  325.557  325.525  325.491  325.456  325.421  325.386  325.352  325.322  325.298  325.283
  20   325.796  325.789  325.775  325.756  325.734  325.711  325.686  325.659  325.631  325.601  325.568  325.534  325.498  325.461  325.424  325.387  325.352  325.321  325.296  325.281
  21   325.807  325.801  325.787  325.769  325.748  325.724  325.698  325.670  325.640  325.608  325.574  325.539  325.502  325.464  325.426  325.388  325.352  325.320  325.295  325.280

 HEAD WILL BE SAVED ON UNIT 1016 AT END OF TIME STEP    9, STRESS PERIOD    2


  VOLUME BUDGET FOR ENTIRE MODEL AT END OF TIME STEP    9, STRESS PERIOD   2
  ---------------------------------------------------------------------------------------------------

     CUMULATIVE VOLUME      L**3       RATES FOR THIS TIME STEP      L**3/T          PACKAGE NAME    
     ------------------                 ------------------------                     ----------------

           IN:                                      IN:
           ---                                      ---
              STO-SS =    10799163.1451                STO-SS =       2.1704E-04     STORAGE                          
              STO-SY =    19857363.9289                STO-SY =       1.4333E-03     STORAGE                          
                 WEL =           0.0000                   WEL =           0.0000     WEL_0                            
                 DRN =           0.0000                   DRN =           0.0000     DRN_0                            
                 RIV =           0.0000                   RIV =           0.0000     RIV_0                            
                RCHA = 12662801174.0629                  RCHA =      525000.0000     RCHA_0                           

            TOTAL IN = 12693457701.1369              TOTAL IN =      525000.0017

          OUT:                                     OUT:
          ----                                     ----
              STO-SS =           0.5401                STO-SS =       2.1404E-05     STORAGE                          
              STO-SY =           1.2967                STO-SY =       6.4872E-05     STORAGE                          
                 WEL =  4220833724.6876                   WEL =      175000.0000     WEL_0                            
                 DRN =  3085283335.2753                   DRN =      127229.3478     DRN_0                            
                 RIV =  5387357952.0535                   RIV =      222772.1880     RIV_0                            
                RCHA =           0.0000                  RCHA =           0.0000     RCHA_0                           

           TOTAL OUT = 12693475013.8532             TOTAL OUT =      525001.5359

            IN - OUT =      -17312.7164              IN - OUT =          -1.5342

 PERCENT DISCREPANCY =          -0.00     PERCENT DISCREPANCY =          -0.00




         TIME SUMMARY AT END OF TIME STEP    9 IN STRESS PERIOD    2
                    SECONDS     MINUTES      HOURS       DAYS        YEARS
                    -----------------------------------------------------------
   TIME STEP LENGTH 7.13167E+08 1.18861E+07 1.98102E+05  8254.3      22.599    
 STRESS PERIOD TIME 2.08385E+09 3.47308E+07 5.78847E+05  24119.      66.033    
         TOTAL TIME 2.08394E+09 3.47323E+07 5.78871E+05  24120.      66.036    


end timestep


start timestep kper="2" kstp="10" mode="normal"


 DRN PACKAGE (DRN_0) FLOW RATES   PERIOD      2   STEP       10
 -----------------------------------------------
   NUMBER   CELLID                    RATE      
 -----------------------------------------------
     1      (1,15,10)            -38151.653     
     2      (1,15,11)            -19313.497     
     3      (1,15,12)            -16075.182     
     4      (1,15,13)            -14507.094     
     5      (1,15,14)            -13160.299     
     6      (1,15,15)            -11564.822     
     7      (1,15,16)            -9338.3358     
     8      (1,15,17)            -5118.4644     
     9      (1,15,18)             0.0000000     
     10     (1,15,19)             0.0000000     
     11     (1,15,20)             0.0000000     
 -----------------------------------------------



1
  HEAD IN LAYER   1 AT END OF TIME STEP  10 IN STRESS PERIOD    2
  ---------------------------------------------------------------------------

            1        2        3        4        5        6        7        8        9       10       11       12       13       14       15       16       17       18       19       20
 .......................................................................................................................................................................................
   1   332.975  332.928  332.835  332.696  332.511  332.282  332.010  331.692  331.328  330.913  330.439  329.896  329.266  328.532  327.667  326.643  325.425  323.970  322.226  320.126
   2   332.944  332.896  332.801  332.658  332.469  332.235  331.957  331.635  331.268  330.851  330.379  329.838  329.214  328.485  327.628  326.612  325.401  323.954  322.217  320.125
   3   332.885  332.834  332.734  332.584  332.385  332.141  331.851  331.519  331.144  330.724  330.254  329.720  329.106  328.391  327.548  326.547  325.352  323.921  322.200  320.124
   4   332.798  332.743  332.635  332.473  332.259  331.997  331.688  331.338  330.950  330.525  330.057  329.535  328.939  328.246  327.426  326.449  325.278  323.870  322.174  320.123
   5   332.686  332.626  332.506  332.328  332.092  331.802  331.464  331.085  330.674  330.238  329.776  329.273  328.705  328.044  327.259  326.316  325.178  323.802  322.138  320.121
   6   332.554  332.487  332.352  332.151  331.885  331.557  331.174  330.748  330.299  329.844  329.391  328.920  328.396  327.782  327.043  326.145  325.050  323.717  322.094  320.119
   7   332.406  332.330  332.178  331.949  331.642  331.261  330.812  330.312  329.794  329.303  328.870  328.455  327.999  327.453  326.777  325.936  324.895  323.613  322.040  320.116
   8   332.251  332.165  331.992  331.730  331.374  330.923  330.379  329.760  329.116  328.547  328.165  327.855  327.508  327.056  326.460  325.690  324.713  323.491  321.977  320.113
   9   332.096  332.000  331.805  331.506  331.095  330.560  329.890  329.087  328.199  327.424  327.204  327.105  326.924  326.596  326.097  325.407  324.503  323.351  321.905  320.110
  10   331.950  331.844  331.629  331.296  330.830  330.208  329.393  328.331  326.977  325.525  325.910  326.228  326.279  326.091  325.694  325.092  324.268  323.194  321.824  320.106
  11   331.822  331.708  331.476  331.115  330.607  329.919  328.989  327.680  325.615  321.439  324.434  325.389  325.647  325.568  325.259  324.742  324.006  323.019  321.735  320.101
  12   331.718  331.600  331.357  330.979  330.448  329.738  328.799  327.570  326.014  324.369  324.673  324.996  325.114  325.036  324.782  324.349  323.713  322.827  321.639  320.097
  13   331.645  331.524  331.278  330.895  330.358  329.652  328.735  327.585  326.252  325.025  324.630  324.557  324.524  324.427  324.225  323.890  323.378  322.620  321.540  320.092
  14   331.601  331.483  331.240  330.864  330.340  329.645  328.741  327.584  326.152  324.588  324.002  323.810  323.731  323.653  323.528  323.326  322.994  322.417  321.452  320.088
  15   331.586  331.472  331.240  330.880  330.380  329.713  328.836  327.658  325.944  322.882  322.693  322.661  322.645  322.632  322.616  322.593  322.551  322.281  321.407  320.086
  16   331.594  331.487  331.268  330.932  330.468  329.857  329.070  328.065  326.795  325.324  324.651  324.295  324.056  323.854  323.642  323.384  323.020  322.426  321.453  320.088
  17   331.618  331.518  331.315  331.007  330.585  330.041  329.365  328.551  327.619  326.677  326.003  325.523  325.142  324.793  324.424  323.985  323.414  322.628  321.538  320.092
  18   331.649  331.556  331.370  331.088  330.708  330.229  329.650  328.982  328.255  327.536  326.920  326.401  325.941  325.492  325.007  324.439  323.730  322.816  321.626  320.096
  19   331.680  331.593  331.421  331.162  330.817  330.389  329.883  329.313  328.705  328.097  327.527  327.001  326.497  325.983  325.421  324.765  323.966  322.964  321.698  320.100
  20   331.704  331.623  331.460  331.217  330.897  330.503  330.045  329.534  328.992  328.441  327.900  327.373  326.847  326.296  325.686  324.976  324.121  323.065  321.748  320.102
  21   331.717  331.638  331.481  331.247  330.939  330.563  330.127  329.644  329.131  328.605  328.078  327.552  327.016  326.447  325.815  325.080  324.198  323.115  321.774  320.103
1
  HEAD IN LAYER   2 AT END OF TIME STEP  10 IN STRESS PERIOD    2
  ---------------------------------------------------------------------------

            1        2        3        4        5        6        7        8        9       10       11       12       13       14       15       16       17       18       19       20
 .......................................................................................................................................................................................
   1   329.683  329.656  329.603  329.524  329.419  329.289  329.135  328.955  328.751  328.518  328.255  327.955  327.611  327.214  326.751  326.211  325.575  324.824  323.934  322.876
   2   329.661  329.634  329.579  329.498  329.391  329.259  329.102  328.921  328.715  328.482  328.220  327.921  327.580  327.187  326.728  326.191  325.560  324.813  323.927  322.873
   3   329.618  329.589  329.532  329.447  329.336  329.198  329.036  328.850  328.641  328.408  328.147  327.853  327.518  327.132  326.681  326.153  325.529  324.791  323.914  322.867
   4   329.554  329.523  329.462  329.372  329.253  329.107  328.936  328.742  328.527  328.292  328.034  327.747  327.422  327.047  326.610  326.094  325.483  324.758  323.893  322.859
   5   329.471  329.437  329.371  329.272  329.142  328.983  328.798  328.591  328.366  328.127  327.873  327.598  327.289  326.932  326.513  326.015  325.422  324.713  323.865  322.849
   6   329.371  329.334  329.260  329.149  329.004  328.827  328.621  328.392  328.150  327.904  327.657  327.399  327.114  326.783  326.389  325.915  325.345  324.658  323.831  322.837
   7   329.258  329.216  329.132  329.006  328.841  328.638  328.401  328.138  327.864  327.603  327.369  327.142  326.893  326.598  326.237  325.794  325.252  324.592  323.791  322.822
   8   329.136  329.088  328.991  328.847  328.657  328.421  328.140  327.821  327.488  327.191  326.986  326.815  326.623  326.377  326.059  325.653  325.144  324.516  323.745  322.807
   9   329.010  328.954  328.843  328.677  328.457  328.182  327.843  327.438  326.989  326.593  326.473  326.411  326.306  326.125  325.857  325.493  325.023  324.430  323.695  322.791
  10   328.887  328.823  328.694  328.502  328.250  327.938  327.537  327.012  326.336  325.608  325.794  325.944  325.958  325.849  325.635  325.316  324.888  324.336  323.639  322.774
  11   328.775  328.701  328.552  328.327  328.039  327.710  327.271  326.637  325.616  323.536  325.027  325.499  325.618  325.566  325.397  325.124  324.740  324.233  323.580  322.758
  12   328.684  328.600  328.427  328.158  327.802  327.519  327.113  326.539  325.782  324.969  325.122  325.280  325.331  325.281  325.141  324.911  324.578  324.122  323.518  322.742
  13   328.622  328.533  328.343  328.015  327.430  327.375  327.037  326.519  325.880  325.278  325.082  325.043  325.019  324.960  324.847  324.667  324.397  324.006  323.456  322.728
  14   328.596  328.512  328.339  328.071  327.719  327.443  327.056  326.517  325.823  325.050  324.758  324.658  324.610  324.561  324.487  324.373  324.194  323.894  323.402  322.715
  15   328.599  328.524  328.375  328.152  327.867  327.550  327.138  326.569  325.724  324.199  324.101  324.079  324.062  324.044  324.023  323.999  323.964  323.817  323.371  322.706
  16   328.621  328.556  328.426  328.233  327.982  327.676  327.290  326.794  326.161  325.424  325.081  324.894  324.764  324.650  324.531  324.388  324.193  323.884  323.388  322.701
  17   328.654  328.596  328.482  328.311  328.087  327.808  327.467  327.058  326.588  326.110  325.763  325.512  325.308  325.120  324.921  324.686  324.387  323.981  323.426  322.698
  18   328.689  328.637  328.535  328.382  328.180  327.931  327.634  327.292  326.920  326.550  326.229  325.956  325.711  325.471  325.213  324.912  324.543  324.072  323.467  322.697
  19   328.721  328.673  328.579  328.440  328.257  328.032  327.768  327.472  327.157  326.839  326.540  326.261  325.993  325.719  325.421  325.076  324.660  324.145  323.501  322.697
  20   328.744  328.700  328.612  328.481  328.310  328.102  327.861  327.593  327.308  327.018  326.732  326.452  326.171  325.878  325.554  325.182  324.738  324.195  323.525  322.697
  21   328.757  328.714  328.629  328.503  328.338  328.138  327.908  327.653  327.382  327.103  326.824  326.543  326.257  325.955  325.620  325.234  324.776  324.220  323.538  322.697
1
  HEAD IN LAYER   3 AT END OF TIME STEP  10 IN STRESS PERIOD    2
  ---------------------------------------------------------------------------

            1        2        3        4        5        6        7        8        9       10       11       12       13       14       15       16       17       18       19       20
 .......................................................................................................................................................................................
   1   326.404  326.397  326.384  326.365  326.339  326.308  326.271  326.230  326.184  326.133  326.079  326.022  325.962  325.901  325.839  325.780  325.724  325.675  325.636  325.614
   2   326.390  326.384  326.370  326.351  326.325  326.294  326.258  326.217  326.172  326.122  326.069  326.013  325.954  325.893  325.832  325.773  325.717  325.669  325.631  325.609
   3   326.363  326.356  326.343  326.324  326.298  326.268  326.233  326.193  326.148  326.100  326.049  325.994  325.936  325.877  325.818  325.760  325.706  325.658  325.621  325.599
   4   326.322  326.316  326.302  326.283  326.258  326.228  326.194  326.156  326.113  326.068  326.018  325.966  325.911  325.854  325.797  325.741  325.688  325.642  325.605  325.584
   5   326.268  326.261  326.247  326.228  326.203  326.175  326.142  326.106  326.067  326.024  325.978  325.929  325.878  325.824  325.770  325.716  325.665  325.621  325.586  325.565
   6   326.202  326.194  326.179  326.159  326.135  326.107  326.078  326.045  326.010  325.971  325.930  325.885  325.837  325.788  325.737  325.686  325.638  325.596  325.562  325.542
   7   326.123  326.114  326.097  326.075  326.051  326.026  326.000  325.973  325.943  325.910  325.874  325.834  325.792  325.747  325.700  325.653  325.608  325.568  325.536  325.517
   8   326.034  326.022  326.002  325.976  325.951  325.929  325.909  325.889  325.866  325.840  325.811  325.778  325.742  325.702  325.659  325.616  325.575  325.537  325.507  325.489
   9   325.937  325.921  325.893  325.859  325.830  325.814  325.805  325.796  325.784  325.766  325.745  325.720  325.689  325.655  325.618  325.579  325.540  325.505  325.477  325.460
  10   325.837  325.813  325.771  325.720  325.681  325.676  325.687  325.697  325.698  325.691  325.679  325.661  325.638  325.609  325.576  325.540  325.505  325.473  325.447  325.431
  11   325.741  325.706  325.639  325.551  325.481  325.510  325.560  325.598  325.617  325.620  325.618  325.607  325.589  325.565  325.536  325.504  325.472  325.442  325.418  325.403
  12   325.661  325.612  325.509  325.347  325.166  325.308  325.434  325.512  325.551  325.566  325.569  325.562  325.547  325.525  325.499  325.470  325.440  325.413  325.390  325.376
  13   325.612  325.554  325.419  325.146  324.511  325.108  325.347  325.457  325.509  325.529  325.533  325.527  325.512  325.492  325.467  325.440  325.413  325.387  325.365  325.352
  14   325.602  325.553  325.450  325.289  325.108  325.250  325.377  325.455  325.495  325.510  325.511  325.502  325.486  325.466  325.442  325.416  325.389  325.365  325.344  325.332
  15   325.623  325.588  325.521  325.434  325.365  325.395  325.446  325.485  325.505  325.508  325.502  325.490  325.471  325.449  325.424  325.398  325.372  325.347  325.327  325.315
  16   325.660  325.637  325.595  325.545  325.507  325.504  325.516  325.528  325.530  325.523  325.510  325.491  325.469  325.444  325.416  325.388  325.361  325.336  325.315  325.302
  17   325.702  325.687  325.659  325.626  325.599  325.584  325.577  325.571  325.560  325.545  325.524  325.501  325.474  325.445  325.415  325.385  325.355  325.328  325.306  325.293
  18   325.742  325.731  325.711  325.686  325.662  325.643  325.626  325.609  325.590  325.567  325.541  325.513  325.483  325.450  325.417  325.384  325.352  325.324  325.301  325.287
  19   325.774  325.765  325.749  325.729  325.706  325.684  325.662  325.639  325.614  325.587  325.557  325.525  325.491  325.456  325.421  325.386  325.352  325.322  325.298  325.283
  20   325.796  325.789  325.775  325.756  325.734  325.711  325.686  325.659  325.631  325.601  325.568  325.534  325.498  325.461  325.424  325.387  325.352  325.321  325.296  325.281
  21   325.807  325.801  325.787  325.769  325.748  325.724  325.698  325.670  325.640  325.608  325.574  325.539  325.502  325.464  325.426  325.388  325.352  325.320  325.295  325.280

 HEAD WILL BE SAVED ON UNIT 1016 AT END OF TIME STEP   10, STRESS PERIOD    2


  VOLUME BUDGET FOR ENTIRE MODEL AT END OF TIME STEP   10, STRESS PERIOD   2
  ---------------------------------------------------------------------------------------------------

     CUMULATIVE VOLUME      L**3       RATES FOR THIS TIME STEP      L**3/T          PACKAGE NAME    
     ------------------                 ------------------------                     ----------------

           IN:                                      IN:
           ---                                      ---
              STO-SS =    10799165.3094                STO-SS =       1.7480E-04     STORAGE                          
              STO-SY =    19857379.2314                STO-SY =       1.2359E-03     STORAGE                          
                 WEL =           0.0000                   WEL =           0.0000     WEL_0                            
                 DRN =           0.0000                   DRN =           0.0000     DRN_0                            
                 RIV =           0.0000                   RIV =           0.0000     RIV_0                            
                RCHA = 19163025000.0000                  RCHA =      525000.0000     RCHA_0                           

            TOTAL IN = 19193681544.5408              TOTAL IN =      525000.0014

          OUT:                                     OUT:
          ----                                     ----
              STO-SS =           0.6971                STO-SS =       1.2682E-05     STORAGE                          
              STO-SY =           1.5241                STO-SY =       1.8371E-05     STORAGE                          
                 WEL =  6387575000.0000                   WEL =      175000.0000     WEL_0                            
                 DRN =  4660558086.8441                   DRN =      127229.3488     DRN_0                            
                 RIV =  8145584696.2593                   RIV =      222772.1813     RIV_0                            
                RCHA =           0.0000                  RCHA =           0.0000     RCHA_0                           

           TOTAL OUT = 19193717785.3246             TOTAL OUT =      525001.5302

            IN - OUT =      -36240.7838              IN - OUT =          -1.5288

 PERCENT DISCREPANCY =          -0.00     PERCENT DISCREPANCY =          -0.00




         TIME SUMMARY AT END OF TIME STEP   10 IN STRESS PERIOD    2
                    SECONDS     MINUTES      HOURS       DAYS        YEARS
                    -----------------------------------------------------------
   TIME STEP LENGTH 1.06975E+09 1.78292E+07 2.97153E+05  12381.      33.898    
 STRESS PERIOD TIME 3.15360E+09 5.25600E+07 8.76000E+05  36500.      99.932    
         TOTAL TIME 3.15369E+09 5.25614E+07 8.76024E+05  36501.      99.934    


end timestep


start timestep kper="3" kstp="1" mode="normal"


 OUTPUT CONTROL FOR STRESS PERIOD 3 IS REPEATED USING SETTINGS FROM A PREVIOUS STRESS PERIOD.


 PROCESSING STORAGE PERIOD DATA
 END PROCESSING STORAGE PERIOD DATA


 STRESS PERIOD 3 IS STEADY-STATE


 REUSING DRNS FROM LAST STRESS PERIOD

 REUSING RIVS FROM LAST STRESS PERIOD

 REUSING RCHS FROM LAST STRESS PERIOD

 DRN PACKAGE (DRN_0) FLOW RATES   PERIOD      3   STEP        1
 -----------------------------------------------
   NUMBER   CELLID                    RATE      
 -----------------------------------------------
     1      (1,15,10)            -38151.641     
     2      (1,15,11)            -19313.492     
     3      (1,15,12)            -16075.178     
     4      (1,15,13)            -14507.090     
     5      (1,15,14)            -13160.296     
     6      (1,15,15)            -11564.819     
     7      (1,15,16)            -9338.3334     
     8      (1,15,17)            -5118.4628     
     9      (1,15,18)             0.0000000     
     10     (1,15,19)             0.0000000     
     11     (1,15,20)             0.0000000     
 -----------------------------------------------



1
  HEAD IN LAYER   1 AT END OF TIME STEP   1 IN STRESS PERIOD    3
  ---------------------------------------------------------------------------

            1        2        3        4        5        6        7        8        9       10       11       12       13       14       15       16       17       18       19       20
 .......................................................................................................................................................................................
   1   332.975  332.928  332.835  332.696  332.511  332.282  332.010  331.692  331.328  330.913  330.439  329.896  329.266  328.532  327.667  326.643  325.425  323.970  322.226  320.126
   2   332.944  332.896  332.801  332.658  332.469  332.235  331.957  331.635  331.268  330.851  330.379  329.838  329.214  328.485  327.628  326.612  325.401  323.954  322.217  320.125
   3   332.885  332.834  332.734  332.584  332.385  332.141  331.851  331.519  331.144  330.724  330.254  329.720  329.106  328.391  327.548  326.547  325.352  323.921  322.200  320.124
   4   332.798  332.743  332.635  332.473  332.259  331.997  331.688  331.338  330.950  330.525  330.057  329.535  328.939  328.246  327.426  326.449  325.278  323.870  322.174  320.123
   5   332.686  332.626  332.506  332.328  332.092  331.802  331.464  331.085  330.674  330.238  329.776  329.273  328.705  328.044  327.259  326.316  325.178  323.802  322.138  320.121
   6   332.554  332.487  332.352  332.151  331.885  331.557  331.174  330.748  330.299  329.844  329.391  328.920  328.395  327.782  327.043  326.145  325.050  323.717  322.094  320.119
   7   332.406  332.330  332.178  331.949  331.642  331.261  330.812  330.312  329.794  329.303  328.870  328.455  327.999  327.453  326.777  325.936  324.895  323.613  322.040  320.116
   8   332.251  332.165  331.992  331.730  331.374  330.923  330.379  329.760  329.116  328.547  328.165  327.855  327.508  327.056  326.460  325.690  324.713  323.491  321.977  320.113
   9   332.096  332.000  331.805  331.506  331.095  330.560  329.890  329.087  328.199  327.424  327.204  327.105  326.924  326.596  326.097  325.407  324.503  323.351  321.905  320.110
  10   331.950  331.844  331.629  331.296  330.830  330.208  329.393  328.331  326.977  325.525  325.910  326.228  326.279  326.091  325.694  325.092  324.268  323.194  321.824  320.106
  11   331.822  331.708  331.476  331.115  330.607  329.919  328.989  327.680  325.615  321.439  324.434  325.389  325.647  325.568  325.259  324.742  324.006  323.019  321.735  320.101
  12   331.718  331.600  331.357  330.979  330.448  329.738  328.799  327.570  326.014  324.369  324.673  324.996  325.114  325.036  324.782  324.349  323.713  322.827  321.639  320.097
  13   331.645  331.524  331.278  330.895  330.358  329.652  328.735  327.585  326.252  325.025  324.630  324.557  324.524  324.427  324.225  323.890  323.378  322.620  321.540  320.092
  14   331.601  331.483  331.240  330.864  330.340  329.645  328.741  327.584  326.152  324.588  324.002  323.810  323.731  323.653  323.528  323.326  322.994  322.417  321.452  320.088
  15   331.586  331.472  331.240  330.880  330.380  329.713  328.836  327.658  325.944  322.882  322.693  322.661  322.645  322.632  322.616  322.593  322.551  322.281  321.407  320.086
  16   331.594  331.487  331.268  330.932  330.468  329.857  329.070  328.065  326.795  325.324  324.651  324.295  324.056  323.854  323.642  323.384  323.020  322.426  321.453  320.088
  17   331.618  331.518  331.315  331.007  330.585  330.041  329.365  328.551  327.619  326.677  326.003  325.523  325.142  324.793  324.424  323.985  323.414  322.628  321.538  320.092
  18   331.649  331.556  331.370  331.088  330.708  330.229  329.650  328.982  328.255  327.536  326.920  326.401  325.941  325.492  325.007  324.439  323.730  322.816  321.626  320.096
  19   331.680  331.593  331.421  331.162  330.817  330.389  329.883  329.313  328.705  328.097  327.527  327.001  326.497  325.983  325.421  324.765  323.966  322.964  321.698  320.100
  20   331.704  331.623  331.460  331.217  330.897  330.503  330.045  329.534  328.992  328.441  327.900  327.373  326.847  326.296  325.686  324.976  324.121  323.065  321.748  320.102
  21   331.717  331.638  331.481  331.247  330.939  330.563  330.127  329.644  329.131  328.605  328.078  327.552  327.016  326.447  325.815  325.080  324.198  323.115  321.774  320.103
1
  HEAD IN LAYER   2 AT END OF TIME STEP   1 IN STRESS PERIOD    3
  ---------------------------------------------------------------------------

            1        2        3        4        5        6        7        8        9       10       11       12       13       14       15       16       17       18       19       20
 .......................................................................................................................................................................................
   1   329.683  329.656  329.603  329.524  329.419  329.289  329.135  328.955  328.751  328.518  328.255  327.955  327.611  327.214  326.751  326.211  325.575  324.824  323.934  322.876
   2   329.661  329.634  329.579  329.498  329.391  329.259  329.102  328.921  328.715  328.482  328.220  327.921  327.580  327.187  326.728  326.191  325.560  324.813  323.927  322.873
   3   329.618  329.589  329.532  329.447  329.336  329.198  329.036  328.850  328.641  328.408  328.147  327.853  327.518  327.132  326.681  326.153  325.529  324.791  323.914  322.867
   4   329.554  329.523  329.462  329.372  329.253  329.107  328.936  328.742  328.527  328.292  328.034  327.747  327.422  327.047  326.610  326.094  325.483  324.758  323.893  322.859
   5   329.471  329.437  329.371  329.272  329.142  328.983  328.798  328.591  328.366  328.127  327.873  327.598  327.289  326.932  326.513  326.015  325.422  324.713  323.865  322.849
   6   329.371  329.334  329.260  329.149  329.004  328.827  328.621  328.392  328.150  327.904  327.657  327.399  327.114  326.783  326.389  325.915  325.345  324.658  323.831  322.837
   7   329.258  329.216  329.132  329.006  328.841  328.638  328.401  328.138  327.864  327.603  327.369  327.142  326.893  326.598  326.237  325.794  325.252  324.592  323.791  322.822
   8   329.136  329.088  328.991  328.847  328.657  328.421  328.140  327.821  327.488  327.191  326.986  326.815  326.623  326.377  326.059  325.653  325.144  324.516  323.745  322.807
   9   329.010  328.954  328.843  328.677  328.457  328.182  327.843  327.438  326.989  326.593  326.473  326.411  326.306  326.125  325.857  325.493  325.023  324.430  323.695  322.791
  10   328.887  328.823  328.694  328.502  328.250  327.938  327.537  327.012  326.336  325.608  325.794  325.944  325.958  325.849  325.635  325.316  324.888  324.336  323.639  322.774
  11   328.775  328.701  328.552  328.327  328.039  327.710  327.271  326.637  325.616  323.536  325.027  325.499  325.618  325.566  325.397  325.124  324.740  324.233  323.580  322.758
  12   328.684  328.600  328.427  328.158  327.802  327.519  327.113  326.539  325.782  324.969  325.122  325.280  325.331  325.281  325.141  324.911  324.578  324.122  323.518  322.742
  13   328.622  328.533  328.343  328.015  327.430  327.375  327.037  326.519  325.880  325.278  325.082  325.043  325.019  324.960  324.847  324.667  324.397  324.006  323.456  322.728
  14   328.596  328.512  328.339  328.071  327.719  327.443  327.056  326.517  325.823  325.050  324.758  324.658  324.610  324.561  324.487  324.373  324.194  323.894  323.402  322.715
  15   328.599  328.524  328.375  328.152  327.867  327.550  327.138  326.569  325.724  324.199  324.101  324.079  324.062  324.044  324.023  323.999  323.964  323.817  323.371  322.706
  16   328.621  328.556  328.426  328.233  327.982  327.676  327.290  326.794  326.161  325.424  325.081  324.894  324.764  324.650  324.531  324.388  324.193  323.884  323.388  322.701
  17   328.654  328.596  328.482  328.311  328.087  327.808  327.467  327.058  326.588  326.110  325.763  325.512  325.308  325.120  324.921  324.686  324.387  323.981  323.426  322.698
  18   328.689  328.637  328.535  328.382  328.180  327.931  327.634  327.292  326.920  326.550  326.229  325.956  325.711  325.471  325.213  324.912  324.543  324.072  323.467  322.697
  19   328.721  328.673  328.579  328.440  328.257  328.032  327.768  327.472  327.157  326.839  326.540  326.261  325.993  325.719  325.421  325.076  324.660  324.145  323.501  322.697
  20   328.744  328.700  328.612  328.481  328.310  328.102  327.861  327.593  327.308  327.018  326.732  326.452  326.171  325.878  325.554  325.182  324.738  324.195  323.525  322.697
  21   328.757  328.714  328.629  328.503  328.338  328.138  327.908  327.653  327.382  327.103  326.824  326.543  326.257  325.955  325.620  325.234  324.776  324.220  323.538  322.697
1
  HEAD IN LAYER   3 AT END OF TIME STEP   1 IN STRESS PERIOD    3
  ---------------------------------------------------------------------------

            1        2        3        4        5        6        7        8        9       10       11       12       13       14       15       16       17       18       19       20
 .......................................................................................................................................................................................
   1   326.404  326.397  326.384  326.365  326.339  326.308  326.271  326.230  326.184  326.133  326.079  326.022  325.962  325.901  325.839  325.780  325.724  325.675  325.636  325.614
   2   326.390  326.384  326.370  326.351  326.325  326.294  326.258  326.217  326.172  326.122  326.069  326.013  325.954  325.893  325.832  325.773  325.717  325.669  325.631  325.609
   3   326.363  326.356  326.343  326.324  326.298  326.268  326.233  326.193  326.148  326.100  326.049  325.994  325.936  325.877  325.818  325.760  325.706  325.658  325.621  325.599
   4   326.322  326.316  326.302  326.283  326.258  326.228  326.194  326.156  326.113  326.068  326.018  325.966  325.911  325.854  325.797  325.741  325.688  325.642  325.605  325.584
   5   326.268  326.261  326.247  326.228  326.203  326.175  326.142  326.106  326.067  326.024  325.978  325.929  325.878  325.824  325.770  325.716  325.665  325.621  325.586  325.565
   6   326.202  326.194  326.179  326.159  326.135  326.107  326.078  326.045  326.010  325.971  325.930  325.885  325.837  325.788  325.737  325.686  325.638  325.596  325.562  325.542
   7   326.123  326.114  326.097  326.075  326.051  326.026  326.000  325.973  325.943  325.910  325.874  325.834  325.792  325.747  325.700  325.653  325.608  325.568  325.536  325.517
   8   326.034  326.022  326.002  325.976  325.951  325.929  325.909  325.889  325.866  325.840  325.811  325.778  325.742  325.702  325.659  325.616  325.575  325.537  325.507  325.489
   9   325.937  325.921  325.893  325.859  325.830  325.814  325.805  325.796  325.784  325.766  325.745  325.720  325.689  325.655  325.618  325.579  325.540  325.505  325.477  325.460
  10   325.837  325.813  325.771  325.720  325.681  325.676  325.687  325.697  325.698  325.691  325.679  325.661  325.638  325.609  325.576  325.540  325.505  325.473  325.447  325.431
  11   325.741  325.706  325.639  325.551  325.481  325.510  325.560  325.598  325.617  325.620  325.618  325.607  325.589  325.565  325.536  325.504  325.472  325.442  325.418  325.403
  12   325.661  325.612  325.509  325.347  325.166  325.308  325.434  325.512  325.551  325.566  325.569  325.562  325.547  325.525  325.499  325.470  325.440  325.413  325.390  325.376
  13   325.612  325.554  325.419  325.146  324.511  325.108  325.347  325.457  325.509  325.529  325.533  325.527  325.512  325.492  325.467  325.440  325.413  325.387  325.365  325.352
  14   325.602  325.553  325.450  325.289  325.108  325.250  325.377  325.455  325.495  325.510  325.511  325.502  325.486  325.466  325.442  325.416  325.389  325.365  325.344  325.332
  15   325.623  325.588  325.521  325.434  325.365  325.395  325.446  325.485  325.505  325.508  325.502  325.490  325.471  325.449  325.424  325.398  325.372  325.347  325.327  325.315
  16   325.660  325.637  325.595  325.545  325.507  325.504  325.516  325.528  325.530  325.523  325.510  325.491  325.469  325.444  325.416  325.388  325.361  325.336  325.315  325.302
  17   325.702  325.687  325.659  325.626  325.599  325.584  325.577  325.571  325.560  325.545  325.524  325.501  325.474  325.445  325.415  325.385  325.355  325.328  325.306  325.293
  18   325.742  325.731  325.711  325.686  325.662  325.643  325.626  325.609  325.590  325.567  325.541  325.513  325.483  325.450  325.417  325.384  325.352  325.324  325.301  325.287
  19   325.774  325.765  325.749  325.729  325.706  325.684  325.662  325.639  325.614  325.587  325.557  325.525  325.491  325.456  325.421  325.386  325.352  325.322  325.298  325.283
  20   325.796  325.789  325.775  325.756  325.734  325.711  325.686  325.659  325.631  325.601  325.568  325.534  325.498  325.461  325.424  325.387  325.352  325.321  325.296  325.281
  21   325.807  325.801  325.787  325.769  325.748  325.724  325.698  325.670  325.640  325.608  325.574  325.539  325.502  325.464  325.426  325.388  325.352  325.320  325.295  325.280

 HEAD WILL BE SAVED ON UNIT 1016 AT END OF TIME STEP    1, STRESS PERIOD    3


  VOLUME BUDGET FOR ENTIRE MODEL AT END OF TIME STEP    1, STRESS PERIOD   3
  ---------------------------------------------------------------------------------------------------

     CUMULATIVE VOLUME      L**3       RATES FOR THIS TIME STEP      L**3/T          PACKAGE NAME    
     ------------------                 ------------------------                     ----------------

           IN:                                      IN:
           ---                                      ---
              STO-SS =    10799165.3094                STO-SS =           0.0000     STORAGE                          
              STO-SY =    19857379.2314                STO-SY =           0.0000     STORAGE                          
                 WEL =           0.0000                   WEL =           0.0000     WEL_0                            
                 DRN =           0.0000                   DRN =           0.0000     DRN_0                            
                 RIV =           0.0000                   RIV =           0.0000     RIV_0                            
                RCHA = 19163550000.0000                  RCHA =      525000.0000     RCHA_0                           

            TOTAL IN = 19194206544.5408              TOTAL IN =      525000.0000

          OUT:                                     OUT:
          ----                                     ----
              STO-SS =           0.6971                STO-SS =           0.0000     STORAGE                          
              STO-SY =           1.5241                STO-SY =           0.0000     STORAGE                          
                 WEL =  6387750000.0000                   WEL =      175000.0000     WEL_0                            
                 DRN =  4660685316.1563                   DRN =      127229.3122     DRN_0                            
                 RIV =  8145807468.4072                   RIV =      222772.1479     RIV_0                            
                RCHA =           0.0000                  RCHA =           0.0000     RCHA_0                           

           TOTAL OUT = 19194242786.7848             TOTAL OUT =      525001.4601

            IN - OUT =      -36242.2439              IN - OUT =          -1.4601

 PERCENT DISCREPANCY =          -0.00     PERCENT DISCREPANCY =          -0.00




         TIME SUMMARY AT END OF TIME STEP    1 IN STRESS PERIOD    3
                    SECONDS     MINUTES      HOURS       DAYS        YEARS
                    -----------------------------------------------------------
   TIME STEP LENGTH  86400.      1440.0      24.000      1.0000     2.73785E-03
 STRESS PERIOD TIME  86400.      1440.0      24.000      1.0000     2.73785E-03
         TOTAL TIME 3.15377E+09 5.25629E+07 8.76048E+05  36502.      99.937    


end timestep

